DiffSBDD_49
     RDKit          3D

  0  0  0  0  0  0  0  0  0  0999 V3000
M  V30 BEGIN CTAB
M  V30 COUNTS 60 61 0 0 1
M  V30 BEGIN ATOM
M  V30 1 C 5.417409 6.348525 -16.074823 0
M  V30 2 C 6.587239 5.583896 -16.259709 0
M  V30 3 C 7.169878 5.496004 -17.543749 0
M  V30 4 C 12.052950 9.208317 -3.007435 0
M  V30 5 N 9.442302 8.067221 -10.752887 0
M  V30 6 C 12.110620 8.449354 -8.352263 0
M  V30 7 O 12.856033 7.990222 -9.215431 0
M  V30 8 F 8.292095 4.759915 -17.730515 0
M  V30 9 C 7.093666 6.924886 -13.567896 0
M  V30 10 C 8.877478 5.198714 -13.226924 0
M  V30 11 O 11.375433 10.699093 -5.708028 0
M  V30 12 C 6.577861 6.170668 -18.635069 0
M  V30 13 C 5.406214 6.932745 -18.439919 0
M  V30 14 C 7.207575 4.827557 -15.076382 0
M  V30 15 C 12.582711 8.304610 -1.878903 0
M  V30 16 C 10.645616 8.723326 -8.696720 0
M  V30 17 C 9.937920 7.580966 -9.466043 0
M  V30 18 S 11.509041 9.243345 -5.810282 0
M  V30 19 C 7.194978 6.071374 -20.017241 0
M  V30 20 O 8.575409 9.190218 -10.415734 0
M  V30 21 C 10.837905 6.421159 -12.466369 0
M  V30 22 N 12.429052 8.790241 -7.075987 0 CHG=-1
M  V30 23 N 11.884696 6.790255 -12.785192 0
M  V30 24 C 8.621059 7.089911 -11.490657 0 CFG=2
M  V30 25 F 6.556416 5.149445 -20.739319 0
M  V30 26 C 9.506329 5.953341 -12.060222 0 CFG=1
M  V30 27 O 10.311512 8.412554 -5.631681 0
M  V30 28 C 7.800197 5.628875 -13.914973 0
M  V30 29 C 4.828955 7.021425 -17.160661 0
M  V30 30 F 4.835530 7.578928 -19.484134 0
M  V30 31 C 12.169519 6.817955 -1.985094 0
M  V30 32 C 7.860329 7.817058 -12.609302 0
M  V30 33 C 12.578520 8.790263 -4.384877 0
M  V30 34 H 4.975341 6.413554 -15.098575 0
M  V30 35 H 12.320965 10.236384 -2.785184 0
M  V30 36 H 10.975431 9.192149 -3.007128 0
M  V30 37 H 6.114688 6.686412 -13.151666 0
M  V30 38 H 6.943486 7.530871 -14.458658 0
M  V30 39 H 9.348437 4.266340 -13.503195 0
M  V30 40 H 7.954948 4.120116 -15.435716 0
M  V30 41 H 6.412362 4.211851 -14.653095 0
M  V30 42 H 13.668140 8.390200 -1.851631 0
M  V30 43 H 12.229486 8.702588 -0.926986 0
M  V30 44 H 10.753873 9.590237 -9.341856 0
M  V30 45 H 9.990949 9.057735 -7.899537 0
M  V30 46 H 9.115819 7.192291 -8.862062 0
M  V30 47 H 10.614676 6.742645 -9.633553 0
M  V30 48 H 7.121130 7.020934 -20.548691 0
M  V30 49 H 8.246356 5.787535 -19.971171 0
M  V30 50 H 7.853309 8.701476 -9.971156 0
M  V30 51 H 7.891909 6.629463 -10.822899 0
M  V30 52 H 9.681104 5.228573 -11.264678 0
M  V30 53 H 3.931517 7.605370 -17.011935 0
M  V30 54 H 12.614243 6.234772 -1.185030 0
M  V30 55 H 11.087473 6.694703 -1.922640 0
M  V30 56 H 12.507319 6.321098 -2.890574 0
M  V30 57 H 7.135219 8.511789 -12.191309 0
M  V30 58 H 8.575229 8.390220 -13.184869 0
M  V30 59 H 12.575590 7.711340 -4.385224 0
M  V30 60 H 13.576960 9.189303 -4.562884 0
M  V30 END ATOM
M  V30 BEGIN BOND
M  V30 1 1 2 1
M  V30 2 2 3 2
M  V30 3 2 7 6
M  V30 4 1 8 3
M  V30 5 1 12 3
M  V30 6 2 13 12
M  V30 7 1 14 2
M  V30 8 1 15 4
M  V30 9 1 16 6
M  V30 10 1 17 5
M  V30 11 1 17 16
M  V30 12 2 18 11
M  V30 13 1 19 12
M  V30 14 1 20 5
M  V30 15 1 22 6
M  V30 16 1 22 18
M  V30 17 3 23 21
M  V30 18 1 24 5
M  V30 19 1 25 19
M  V30 20 1 26 10
M  V30 21 1 26 21
M  V30 22 1 26 24
M  V30 23 2 27 18
M  V30 24 1 28 9
M  V30 25 2 28 10
M  V30 26 1 28 14
M  V30 27 2 29 1
M  V30 28 1 29 13
M  V30 29 1 30 13
M  V30 30 1 31 15
M  V30 31 1 32 9
M  V30 32 1 32 24
M  V30 33 1 33 4
M  V30 34 1 33 18
M  V30 35 1 34 1
M  V30 36 1 35 4
M  V30 37 1 36 4
M  V30 38 1 37 9
M  V30 39 1 38 9
M  V30 40 1 39 10
M  V30 41 1 40 14
M  V30 42 1 41 14
M  V30 43 1 42 15
M  V30 44 1 43 15
M  V30 45 1 44 16
M  V30 46 1 45 16
M  V30 47 1 46 17
M  V30 48 1 47 17
M  V30 49 1 48 19
M  V30 50 1 49 19
M  V30 51 1 50 20
M  V30 52 1 24 51 CFG=1
M  V30 53 1 26 52 CFG=1
M  V30 54 1 53 29
M  V30 55 1 54 31
M  V30 56 1 55 31
M  V30 57 1 56 31
M  V30 58 1 57 32
M  V30 59 1 58 32
M  V30 60 1 59 33
M  V30 61 1 60 33
M  V30 END BOND
M  V30 END CTAB
M  END
>  <i_epik_Tot_Q>  (1) 
-1

>  <i_epik_Tot_abs_Q>  (1) 
1

>  <i_i_glide_confnum>  (1) 
2586

>  <i_i_glide_lignum>  (1) 
79

>  <i_i_glide_posenum>  (1) 
256

>  <i_i_glide_rotatable_bonds>  (1) 
13

>  <i_lp_mmshare_version>  (1) 
72125

>  <i_m_source_file_index>  (1) 
50

>  <i_f3d_flags>  (1) 
0

>  <num_sample>  (1) 
100

>  <b_lp_Chiralities_Consistent>  (1) 
1

>  <r_epik_Charging_Adjusted_Penalty>  (1) 
0.026401540153883577

>  <r_epik_Ionization_Penalty>  (1) 
0.013342793293924158

>  <r_epik_Ionization_Penalty_Charging>  (1) 
0.013200770076941797

>  <r_epik_Ionization_Penalty_Neutral>  (1) 
0.00014202321698236043

>  <r_epik_State_Penalty>  (1) 
0.01320077007694178

>  <r_glide_ring_energy>  (1) 
0

>  <r_i_docking_score>  (1) 
-7.9704607517838246

>  <r_i_glide_ecoul>  (1) 
-13.386968303993751

>  <r_i_glide_eff_state_penalty>  (1) 
0.01320077007694178

>  <r_i_glide_einternal>  (1) 
19.971430974857142

>  <r_i_glide_emodel>  (1) 
-46.750857899715406

>  <r_i_glide_emodel_strain>  (1) 
2.5697021136576694

>  <r_i_glide_energy>  (1) 
-39.30391974984294

>  <r_i_glide_erotb>  (1) 
0.85852740142568074

>  <r_i_glide_esite>  (1) 
-0.18204068066968332

>  <r_i_glide_evdw>  (1) 
-25.91695144584919

>  <r_i_glide_gscore>  (1) 
-7.9836615218607667

>  <r_i_glide_gscore_strain>  (1) 
0

>  <r_i_glide_hbond>  (1) 
-0.079605495127741621

>  <r_i_glide_ligand_efficiency>  (1) 
-0.24152911369041893

>  <r_i_glide_ligand_efficiency_ln>  (1) 
-1.7725892023596106

>  <r_i_glide_ligand_efficiency_sa>  (1) 
-0.77471292385548374

>  <r_i_glide_lipo>  (1) 
-2.9794337889622748

>  <r_i_glide_metal>  (1) 
-0

>  <r_i_glide_rewards>  (1) 
-2.2972161406352258

>  <r_lp_Energy>  (1) 
33.979248999999996

>  <s_epik_Chemistry_Notes>  (1) 
This compound has a N-S or N-O group and may undergo hydrolysis at high or low pH.

>  <s_epik_cmdline>  (1) 
J2VwaWtfcHl0aG9uJywgJy1waHQnLCAnMS4wJywgJy1waCcsICc3LjQnLCAnLXRuJywgJzgnLCAnLW1hJywgJzUwMCcsICctaW1hZScsICc8aW5maWxlLm1hZT4nLCAnLW9tYWUnLCAnPG91dGZpbGUubWFlPic=

>  <s_epik_input>  (1) 
RmMxYyhbQ0gyXUYpYyhGKVtjSF1bY0hdYzFbQ0gyXUMoW0NIMl1bQ0gyXTIpPVtDSF1bQ0BASF0oQyNOKVtDQEhdMk4oW09IXSlbQ0gyXVtDSDJdQyg9TylbTkhdUyg9TykoPU8pW0NIMl1bQ0gyXVtDSDJdW0NIM10=

>  <s_glide_docking_method>  (1) 
confgen

>  <s_i_glide_gridfile>  (1) 
gpcr_drd2_6luq_protein_autoprepared_prepared

>  <s_lp_Force_Field>  (1) 
S-OPLS

>  <s_lp_Variant>  (1) 
DiffSBDD_49-1

>  <s_m_source_file>  (1) 
generated_generic_title2_ligand_DiffSBDD_2026-06-23_prepared.sdf

>  <GenAI_Model>  (1) 
DiffSBDD

>  <Protein>  (1) 
generic_title2

$$$$
DiffSBDD_29
     RDKit          3D

  0  0  0  0  0  0  0  0  0  0999 V3000
M  V30 BEGIN CTAB
M  V30 COUNTS 62 63 0 0 1
M  V30 BEGIN ATOM
M  V30 1 C 7.855193 6.137454 -12.253391 0
M  V30 2 C 9.891587 6.952323 -7.334892 0
M  V30 3 C 8.231749 4.876057 -11.450589 0
M  V30 4 O 7.375409 3.697733 -16.136735 0
M  V30 5 C 7.107829 4.715701 -15.492864 0
M  V30 6 F 7.141310 6.232750 -19.901242 0
M  V30 7 C 11.207222 7.614560 -5.258721 0
M  V30 8 C 5.330068 7.194473 -18.536675 0
M  V30 9 C 11.936040 8.765025 -4.536243 0
M  V30 10 C 10.958008 7.894173 -6.745104 0
M  V30 11 N 9.998742 6.857300 -8.785161 0
M  V30 12 C 5.268618 6.398919 -16.186424 0
M  V30 13 O 9.775408 8.191014 -9.318812 0
M  V30 14 C 11.994554 7.906410 -2.058290 0
M  V30 15 C 12.771402 8.347214 -3.308656 0
M  V30 16 C 9.375205 5.167361 -10.472397 0
M  V30 17 C 6.619525 6.390231 -18.674956 0
M  V30 18 C 8.616872 3.752101 -12.430616 0
M  V30 19 C 6.764271 6.005212 -16.284997 0 CFG=2
M  V30 20 C 5.006292 7.592099 -17.093377 0
M  V30 21 N 7.121608 4.693409 -14.130630 0
M  V30 22 N 7.211089 5.861716 -17.674167 0
M  V30 23 N 8.940187 5.990240 -9.328166 0 CHG=1
M  V30 24 C 6.770319 5.865920 -13.307101 0
M  V30 25 C 7.455275 3.465518 -13.391476 0
M  V30 26 C 11.480556 6.458416 -2.107548 0
M  V30 27 H 7.514306 6.928789 -11.585004 0
M  V30 28 H 8.740413 6.528921 -12.757241 0
M  V30 29 H 8.894176 7.280700 -7.036294 0
M  V30 30 H 10.032724 5.951896 -6.923388 0
M  V30 31 H 7.361008 4.541972 -10.883113 0
M  V30 32 H 10.246839 7.427128 -4.785028 0
M  V30 33 H 11.775261 6.686921 -5.172127 0
M  V30 34 H 5.383649 8.081296 -19.168739 0
M  V30 35 H 4.518460 6.584440 -18.932567 0
M  V30 36 H 12.623075 9.233473 -5.242567 0
M  V30 37 H 11.224703 9.545890 -4.262768 0
M  V30 38 H 11.901052 7.785825 -7.283711 0
M  V30 39 H 10.639798 8.928671 -6.881736 0
M  V30 40 H 4.620628 5.590227 -16.506914 0
M  V30 41 H 4.975413 6.642291 -15.169145 0
M  V30 42 H 8.839547 8.330545 -9.185024 0
M  V30 43 H 12.663629 7.995418 -1.201888 0
M  V30 44 H 11.185493 8.604672 -1.860787 0
M  V30 45 H 13.484847 7.573942 -3.585034 0
M  V30 46 H 13.375340 9.209122 -3.023037 0
M  V30 47 H 10.175411 5.672203 -11.014742 0
M  V30 48 H 9.775410 4.235749 -10.074598 0
M  V30 49 H 9.501671 4.039598 -13.001684 0
M  V30 50 H 8.893453 2.841550 -11.899394 0
M  V30 51 H 7.372197 6.790220 -15.845567 0
M  V30 52 H 5.629897 8.432646 -16.785178 0
M  V30 53 H 3.969463 7.920640 -17.011744 0
M  V30 54 H 8.629858 5.396116 -8.573156 0
M  V30 55 H 5.820031 5.662807 -12.811868 0
M  V30 56 H 6.638907 6.797932 -13.847419 0
M  V30 57 H 6.575382 3.140273 -12.833944 0
M  V30 58 H 7.730563 2.625261 -14.030946 0
M  V30 59 H 10.968009 6.190407 -1.185036 0
M  V30 60 H 10.769641 6.293635 -2.913327 0
M  V30 61 H 12.303187 5.756157 -2.242716 0
M  V30 62 H 8.158972 6.597358 -9.585056 0
M  V30 END ATOM
M  V30 BEGIN BOND
M  V30 1 1 3 1
M  V30 2 2 5 4
M  V30 3 1 9 7
M  V30 4 1 10 2
M  V30 5 1 10 7
M  V30 6 1 11 2
M  V30 7 1 13 11
M  V30 8 1 15 9
M  V30 9 1 15 14
M  V30 10 1 16 3
M  V30 11 1 17 6
M  V30 12 1 17 8
M  V30 13 1 18 3
M  V30 14 1 19 5
M  V30 15 1 19 12
M  V30 16 1 20 8
M  V30 17 1 20 12
M  V30 18 1 21 5
M  V30 19 2 22 17
M  V30 20 1 22 19
M  V30 21 1 23 11
M  V30 22 1 23 16
M  V30 23 1 24 1
M  V30 24 1 24 21
M  V30 25 1 25 18
M  V30 26 1 25 21
M  V30 27 1 26 14
M  V30 28 1 27 1
M  V30 29 1 28 1
M  V30 30 1 29 2
M  V30 31 1 30 2
M  V30 32 1 31 3
M  V30 33 1 32 7
M  V30 34 1 33 7
M  V30 35 1 34 8
M  V30 36 1 35 8
M  V30 37 1 36 9
M  V30 38 1 37 9
M  V30 39 1 38 10
M  V30 40 1 39 10
M  V30 41 1 40 12
M  V30 42 1 41 12
M  V30 43 1 42 13
M  V30 44 1 43 14
M  V30 45 1 44 14
M  V30 46 1 45 15
M  V30 47 1 46 15
M  V30 48 1 47 16
M  V30 49 1 48 16
M  V30 50 1 49 18
M  V30 51 1 50 18
M  V30 52 1 19 51 CFG=1
M  V30 53 1 52 20
M  V30 54 1 53 20
M  V30 55 1 54 23
M  V30 56 1 55 24
M  V30 57 1 56 24
M  V30 58 1 57 25
M  V30 59 1 58 25
M  V30 60 1 59 26
M  V30 61 1 60 26
M  V30 62 1 61 26
M  V30 63 1 62 23
M  V30 END BOND
M  V30 END CTAB
M  END
>  <i_epik_Tot_Q>  (1) 
1

>  <i_epik_Tot_abs_Q>  (1) 
1

>  <i_i_glide_confnum>  (1) 
1057

>  <i_i_glide_lignum>  (1) 
50

>  <i_i_glide_posenum>  (1) 
397

>  <i_i_glide_rotatable_bonds>  (1) 
12

>  <i_lp_mmshare_version>  (1) 
72125

>  <i_m_source_file_index>  (1) 
30

>  <i_f3d_flags>  (1) 
0

>  <num_sample>  (1) 
100

>  <b_lp_Chiralities_Consistent>  (1) 
1

>  <r_epik_Charging_Adjusted_Penalty>  (1) 
1.4390288097636857e-06

>  <r_epik_Ionization_Penalty>  (1) 
0.023192080520664203

>  <r_epik_Ionization_Penalty_Charging>  (1) 
4.1514280511365775e-07

>  <r_epik_Ionization_Penalty_Neutral>  (1) 
0.023191665377859088

>  <r_epik_State_Penalty>  (1) 
1.023886004650028e-06

>  <r_glide_ring_energy>  (1) 
0

>  <r_i_docking_score>  (1) 
-7.6502731363241097

>  <r_i_glide_ecoul>  (1) 
-9.7056607596292039

>  <r_i_glide_eff_state_penalty>  (1) 
1.023886004650028e-06

>  <r_i_glide_einternal>  (1) 
10.089831248188759

>  <r_i_glide_emodel>  (1) 
-66.879163756964005

>  <r_i_glide_emodel_strain>  (1) 
1.0968190292486142

>  <r_i_glide_energy>  (1) 
-45.125492104133237

>  <r_i_glide_erotb>  (1) 
1.3985499384426772

>  <r_i_glide_esite>  (1) 
-0.26341046726872847

>  <r_i_glide_evdw>  (1) 
-35.419831344504033

>  <r_i_glide_gscore>  (1) 
-7.6502741602101141

>  <r_i_glide_gscore_strain>  (1) 
0

>  <r_i_glide_hbond>  (1) 
-0.35999999999999999

>  <r_i_glide_ligand_efficiency>  (1) 
-0.29424127447400422

>  <r_i_glide_ligand_efficiency_ln>  (1) 
-1.7966415434720975

>  <r_i_glide_ligand_efficiency_sa>  (1) 
-0.87168861879241166

>  <r_i_glide_lipo>  (1) 
-3.0792456585398091

>  <r_i_glide_metal>  (1) 
-0

>  <r_i_glide_rewards>  (1) 
-2.1193272916746717

>  <r_lp_Energy>  (1) 
24.237140999999998

>  <s_epik_Chemistry_Notes>  (1) 
This compound has an imine and may undergo hydrolysis. This compound has a N-S or N-O group and may undergo hydrolysis at high or low pH.

>  <s_epik_cmdline>  (1) 
J2VwaWtfcHl0aG9uJywgJy1waHQnLCAnMS4wJywgJy1waCcsICc3LjQnLCAnLXRuJywgJzgnLCAnLW1hJywgJzUwMCcsICctaW1hZScsICc8aW5maWxlLm1hZT4nLCAnLW9tYWUnLCAnPG91dGZpbGUubWFlPic=

>  <s_epik_input>  (1) 
RkMxPU5bQ0BASF0oW0NIMl1bQ0gyXVtDSDJdMSlDKD1PKU4oW0NIMl1bQ0gyXTIpW0NIMl1bQ0gyXVtDSF0yW0NIMl1bTkhdTihbT0hdKVtDSDJdW0NIMl1bQ0gyXVtDSDJdW0NIMl1bQ0gyXVtDSDNd

>  <s_glide_docking_method>  (1) 
confgen

>  <s_i_glide_gridfile>  (1) 
gpcr_drd2_6luq_protein_autoprepared_prepared

>  <s_lp_Force_Field>  (1) 
S-OPLS

>  <s_lp_Variant>  (1) 
DiffSBDD_29-1

>  <s_m_source_file>  (1) 
generated_generic_title2_ligand_DiffSBDD_2026-06-23_prepared.sdf

>  <GenAI_Model>  (1) 
DiffSBDD

>  <Protein>  (1) 
generic_title2

$$$$
DiffSBDD_95
     RDKit          3D

  0  0  0  0  0  0  0  0  0  0999 V3000
M  V30 BEGIN CTAB
M  V30 COUNTS 66 71 0 0 1
M  V30 BEGIN ATOM
M  V30 1 C 6.993264 -0.009757 -12.699401 0
M  V30 2 C 7.590654 0.267713 -16.162548 0
M  V30 3 C 6.087573 0.283559 -16.546976 0
M  V30 4 C 6.353286 1.121130 -13.409252 0 CFG=1
M  V30 5 C 11.569335 7.608090 -9.455017 0
M  V30 6 O 9.512321 8.790218 -6.147550 0
M  V30 7 N 11.043701 7.737307 -7.341376 0
M  V30 8 C 9.466126 8.390227 -10.468084 0
M  V30 9 C 6.924577 2.016464 -14.492871 0 CFG=2
M  V30 10 N 8.343449 5.698404 -10.385612 0 CHG=1
M  V30 11 C 12.536299 8.838901 -2.788892 0
M  V30 12 C 9.775407 5.951311 -10.163906 0
M  V30 13 S 4.720392 0.645502 -13.985024 0
M  V30 14 C 11.460102 8.222901 -4.885600 0
M  V30 15 C 8.127701 4.932977 -11.622060 0
M  V30 16 C 8.063526 1.438255 -15.278029 0
M  V30 17 C 6.872049 2.513652 -13.091126 0 CFG=1
M  V30 18 C 6.002439 3.681885 -12.656952 0 CFG=1
M  V30 19 C 11.375410 6.885011 -4.449139 0
M  V30 20 C 5.775378 3.990413 -11.188583 0
M  V30 21 C 10.912743 8.626036 -6.231332 0 CFG=2
M  V30 22 C 11.983476 7.839062 -8.260283 0
M  V30 23 N 8.975428 8.512615 -7.469422 0
M  V30 24 C 9.769515 7.405016 -7.946664 0 CFG=1
M  V30 25 C 10.085272 7.317008 -9.571937 0 CFG=1
M  V30 26 C 5.128685 -0.334861 -15.495149 0
M  V30 27 C 12.040971 9.196338 -4.053183 0
M  V30 28 C 6.668810 4.875422 -11.988392 0 CFG=1
M  V30 29 C 12.453763 7.507747 -2.353037 0
M  V30 30 C 11.870322 6.532638 -3.179007 0
M  V30 31 H 8.025872 0.211910 -12.430621 0
M  V30 32 H 6.435515 -0.254001 -11.794522 0
M  V30 33 H 6.975410 -0.870999 -13.358905 0
M  V30 34 H 8.192323 0.267646 -17.071410 0
M  V30 35 H 7.822937 -0.676931 -15.670165 0
M  V30 36 H 5.760472 1.273812 -16.861320 0
M  V30 37 H 5.991193 -0.330484 -17.442711 0
M  V30 38 H 12.199242 7.653845 -10.331205 0
M  V30 39 H 8.475586 8.167769 -10.839792 0
M  V30 40 H 9.375340 9.331498 -9.935225 0
M  V30 41 H 10.073568 8.535840 -11.360293 0
M  V30 42 H 6.248348 2.584012 -15.122077 0
M  V30 43 H 7.953445 5.204190 -9.595808 0
M  V30 44 H 12.975434 9.589390 -2.152718 0
M  V30 45 H 10.275693 5.925568 -11.132980 0
M  V30 46 H 10.175384 5.150390 -9.542704 0
M  V30 47 H 8.661400 5.372979 -12.466832 0
M  V30 48 H 8.553324 3.951348 -11.435226 0
M  V30 49 H 8.485331 2.231701 -15.896463 0
M  V30 50 H 8.846864 1.113065 -14.594874 0
M  V30 51 H 7.843405 2.476239 -12.617147 0
M  V30 52 H 5.147917 3.893793 -13.297736 0
M  V30 53 H 10.924461 6.133891 -5.082353 0
M  V30 54 H 6.175413 3.296200 -10.459925 0
M  V30 55 H 4.935616 4.560005 -10.832974 0
M  V30 56 H 11.341849 9.588805 -6.515163 0
M  V30 57 H 12.979274 8.112276 -7.940811 0
M  V30 58 H 8.026072 8.179877 -7.318090 0
M  V30 59 H 9.399869 6.464376 -7.536066 0
M  V30 60 H 4.179750 -0.573923 -15.975706 0
M  V30 61 H 5.550003 -1.284576 -15.185073 0
M  V30 62 H 12.100043 10.221119 -4.385110 0
M  V30 63 H 6.257231 5.848081 -12.255388 0
M  V30 64 H 12.836454 7.233621 -1.382437 0
M  V30 65 H 11.803404 5.518519 -2.838036 0
M  V30 66 H 7.856322 6.592876 -10.432692 0
M  V30 END ATOM
M  V30 BEGIN BOND
M  V30 1 1 3 2
M  V30 2 1 4 1 CFG=1
M  V30 3 1 9 4
M  V30 4 1 12 10
M  V30 5 1 13 4
M  V30 6 1 15 10
M  V30 7 1 16 2
M  V30 8 1 16 9
M  V30 9 1 17 4
M  V30 10 1 17 9
M  V30 11 1 18 17
M  V30 12 1 19 14
M  V30 13 1 20 18
M  V30 14 1 21 6
M  V30 15 1 21 7
M  V30 16 1 21 14
M  V30 17 2 22 5
M  V30 18 1 22 7
M  V30 19 1 23 6
M  V30 20 1 24 7
M  V30 21 1 24 23
M  V30 22 1 25 5
M  V30 23 1 25 8 CFG=3
M  V30 24 1 25 12
M  V30 25 1 25 24
M  V30 26 1 26 3
M  V30 27 1 26 13
M  V30 28 1 27 11
M  V30 29 2 27 14
M  V30 30 1 28 15
M  V30 31 1 28 18
M  V30 32 1 28 20
M  V30 33 2 29 11
M  V30 34 2 30 19
M  V30 35 1 30 29
M  V30 36 1 31 1
M  V30 37 1 32 1
M  V30 38 1 33 1
M  V30 39 1 34 2
M  V30 40 1 35 2
M  V30 41 1 36 3
M  V30 42 1 37 3
M  V30 43 1 38 5
M  V30 44 1 39 8
M  V30 45 1 40 8
M  V30 46 1 41 8
M  V30 47 1 9 42 CFG=3
M  V30 48 1 43 10
M  V30 49 1 44 11
M  V30 50 1 45 12
M  V30 51 1 46 12
M  V30 52 1 47 15
M  V30 53 1 48 15
M  V30 54 1 49 16
M  V30 55 1 50 16
M  V30 56 1 17 51 CFG=1
M  V30 57 1 18 52 CFG=3
M  V30 58 1 53 19
M  V30 59 1 54 20
M  V30 60 1 55 20
M  V30 61 1 21 56 CFG=3
M  V30 62 1 57 22
M  V30 63 1 58 23
M  V30 64 1 24 59 CFG=1
M  V30 65 1 60 26
M  V30 66 1 61 26
M  V30 67 1 62 27
M  V30 68 1 28 63 CFG=3
M  V30 69 1 64 29
M  V30 70 1 65 30
M  V30 71 1 66 10
M  V30 END BOND
M  V30 END CTAB
M  END
>  <i_epik_Tot_Q>  (1) 
1

>  <i_epik_Tot_abs_Q>  (1) 
1

>  <i_i_glide_confnum>  (1) 
28

>  <i_i_glide_lignum>  (1) 
183

>  <i_i_glide_posenum>  (1) 
312

>  <i_i_glide_rotatable_bonds>  (1) 
6

>  <i_lp_mmshare_version>  (1) 
72125

>  <i_m_source_file_index>  (1) 
96

>  <i_f3d_flags>  (1) 
0

>  <num_sample>  (1) 
100

>  <b_lp_Chiralities_Consistent>  (1) 
1

>  <r_epik_Charging_Adjusted_Penalty>  (1) 
0.0020531937962160901

>  <r_epik_Ionization_Penalty>  (1) 
0.0020536898614070998

>  <r_epik_Ionization_Penalty_Charging>  (1) 
0.0020531937962160901

>  <r_epik_Ionization_Penalty_Neutral>  (1) 
4.9606519100973171e-07

>  <r_epik_State_Penalty>  (1) 
-0

>  <r_glide_ring_energy>  (1) 
0

>  <r_i_docking_score>  (1) 
-7.5188316467794785

>  <r_i_glide_ecoul>  (1) 
-7.7019228498104528

>  <r_i_glide_eff_state_penalty>  (1) 
-0

>  <r_i_glide_einternal>  (1) 
3.5466242165222184

>  <r_i_glide_emodel>  (1) 
-43.876031472908643

>  <r_i_glide_emodel_strain>  (1) 
2.924202359048536

>  <r_i_glide_energy>  (1) 
-32.481897841337748

>  <r_i_glide_erotb>  (1) 
0.65422182105081872

>  <r_i_glide_esite>  (1) 
-0.25976894401171219

>  <r_i_glide_evdw>  (1) 
-24.779974991527297

>  <r_i_glide_gscore>  (1) 
-7.5188316467794785

>  <r_i_glide_gscore_strain>  (1) 
0

>  <r_i_glide_hbond>  (1) 
-0.3448756644456572

>  <r_i_glide_ligand_efficiency>  (1) 
-0.25062772155931595

>  <r_i_glide_ligand_efficiency_ln>  (1) 
-1.7083604743807053

>  <r_i_glide_ligand_efficiency_sa>  (1) 
-0.77875860332225932

>  <r_i_glide_lipo>  (1) 
-3.1811855282332866

>  <r_i_glide_metal>  (1) 
-0

>  <r_i_glide_rewards>  (1) 
-1.9929361540917085

>  <r_lp_Energy>  (1) 
45.618919999999996

>  <r_lp_tautomer_probability>  (1) 
1

>  <s_epik_Chemistry_Notes>  (1) 
This compound has an imine and may undergo hydrolysis. This compound contains an acetal/aminal-like group ( X-CH(R)-Y where X, Y are N, S, or O) that may be acid/base labile, releasing an aldehyde. This compound has a N-S or N-O group and may undergo hydrolysis at high or low pH.

>  <s_epik_cmdline>  (1) 
J2VwaWtfcHl0aG9uJywgJy1waHQnLCAnMS4wJywgJy1waCcsICc3LjQnLCAnLXRuJywgJzgnLCAnLW1hJywgJzUwMCcsICctaW1hZScsICc8aW5maWxlLm1hZT4nLCAnLW9tYWUnLCAnPG91dGZpbGUubWFlPic=

>  <s_epik_input>  (1) 
UzFbQ0gyXVtDSDJdW0NIMl1bQ0gyXVtDQEBIXShbQ0BdMTJbQ0gzXSlbQ0BIXTJbQ0BIXTNbQ0gyXVtDQEhdM1tDSDJdW05IXVtDSDJdW0NAXShbQ0gzXSkoW0NIXT1bQ0hdNClbQ0BASF0oTjQ1KVtOSF1PW0NASF01YzZbY0hdW2NIXVtjSF1bY0hdW2NIXTY=

>  <s_glide_docking_method>  (1) 
confgen

>  <s_i_glide_gridfile>  (1) 
gpcr_drd2_6luq_protein_autoprepared_prepared

>  <s_lp_Force_Field>  (1) 
S-OPLS

>  <s_lp_Variant>  (1) 
DiffSBDD_95-1

>  <s_m_source_file>  (1) 
generated_generic_title2_ligand_DiffSBDD_2026-06-23_prepared.sdf

>  <GenAI_Model>  (1) 
DiffSBDD

>  <Protein>  (1) 
generic_title2

$$$$
DiffSBDD_29
     RDKit          3D

  0  0  0  0  0  0  0  0  0  0999 V3000
M  V30 BEGIN CTAB
M  V30 COUNTS 62 63 0 0 1
M  V30 BEGIN ATOM
M  V30 1 C 7.076795 6.857047 -12.918997 0
M  V30 2 C 9.697873 6.849848 -8.311149 0
M  V30 3 C 7.849992 5.549272 -12.632454 0
M  V30 4 O 5.515773 7.512414 -16.466097 0
M  V30 5 C 6.066566 6.418804 -16.329563 0
M  V30 6 F 4.555882 5.611831 -20.705739 0
M  V30 7 C 10.413274 7.792318 -6.052223 0
M  V30 8 C 7.005141 5.595322 -20.461452 0
M  V30 9 C 11.165583 6.543653 -5.558204 0
M  V30 10 C 10.456359 7.956398 -7.564367 0
M  V30 11 N 9.774663 6.998336 -9.759145 0
M  V30 12 C 7.817758 6.121680 -18.157655 0
M  V30 13 O 9.375472 8.359936 -10.086771 0
M  V30 14 C 12.140946 7.729001 -3.490849 0
M  V30 15 C 11.380667 6.505496 -4.040806 0
M  V30 16 C 9.115689 5.811283 -11.800509 0
M  V30 17 C 5.601486 5.666470 -19.867360 0
M  V30 18 C 8.232845 4.866378 -13.950718 0
M  V30 19 C 6.454243 5.651977 -17.623843 0 CFG=2
M  V30 20 C 8.121769 5.350107 -19.434193 0
M  V30 21 N 6.324487 5.921652 -15.085629 0
M  V30 22 N 5.389941 5.785199 -18.614498 0
M  V30 23 N 8.793986 6.124195 -10.396077 0 CHG=1
M  V30 24 C 5.885179 6.625130 -13.865636 0
M  V30 25 C 7.024677 4.647476 -14.867242 0
M  V30 26 C 12.189139 7.764542 -1.971534 0
M  V30 27 H 6.719070 7.304487 -11.989050 0
M  V30 28 H 7.747975 7.591004 -13.368313 0
M  V30 29 H 8.660728 6.817864 -7.969950 0
M  V30 30 H 10.139669 5.882127 -8.066985 0
M  V30 31 H 7.200473 4.867914 -12.081247 0
M  V30 32 H 10.850608 8.708686 -5.665290 0
M  V30 33 H 9.379587 7.775886 -5.702317 0
M  V30 34 H 7.038475 4.836112 -21.241979 0
M  V30 35 H 7.191145 6.550314 -20.954984 0
M  V30 36 H 10.592565 5.665241 -5.840763 0
M  V30 37 H 12.116290 6.431494 -6.076422 0
M  V30 38 H 11.492381 8.013051 -7.899506 0
M  V30 39 H 10.006059 8.925454 -7.771088 0
M  V30 40 H 7.804489 7.186630 -18.383163 0
M  V30 41 H 8.605237 5.956677 -17.424008 0
M  V30 42 H 8.434056 8.390221 -9.844268 0
M  V30 43 H 13.151483 7.757274 -3.893134 0
M  V30 44 H 11.668058 8.662303 -3.784273 0
M  V30 45 H 10.416790 6.387604 -3.548141 0
M  V30 46 H 11.929096 5.598505 -3.791291 0
M  V30 47 H 9.679813 6.631943 -12.252523 0
M  V30 48 H 9.788284 4.950903 -11.803208 0
M  V30 49 H 8.968191 5.474260 -14.476912 0
M  V30 50 H 8.705976 3.905711 -13.747615 0
M  V30 51 H 6.519074 4.587580 -17.442971 0
M  V30 52 H 8.195912 4.282431 -19.211935 0
M  V30 53 H 9.088671 5.646051 -19.847677 0
M  V30 54 H 8.720640 5.286108 -9.836372 0
M  V30 55 H 5.134538 6.013382 -13.368640 0
M  V30 56 H 5.395846 7.577682 -14.060142 0
M  V30 57 H 6.321180 3.950939 -14.406446 0
M  V30 58 H 7.423091 4.149351 -15.742859 0
M  V30 59 H 12.705954 8.661842 -1.631573 0
M  V30 60 H 11.180098 7.793397 -1.563658 0
M  V30 61 H 12.701493 6.890475 -1.577270 0
M  V30 62 H 7.914965 6.633374 -10.329942 0
M  V30 END ATOM
M  V30 BEGIN BOND
M  V30 1 1 3 1
M  V30 2 2 5 4
M  V30 3 1 9 7
M  V30 4 1 10 2
M  V30 5 1 10 7
M  V30 6 1 11 2
M  V30 7 1 13 11
M  V30 8 1 15 9
M  V30 9 1 15 14
M  V30 10 1 16 3
M  V30 11 1 17 6
M  V30 12 1 17 8
M  V30 13 1 18 3
M  V30 14 1 19 5
M  V30 15 1 19 12
M  V30 16 1 20 8
M  V30 17 1 20 12
M  V30 18 1 21 5
M  V30 19 2 22 17
M  V30 20 1 22 19
M  V30 21 1 23 11
M  V30 22 1 23 16
M  V30 23 1 24 1
M  V30 24 1 24 21
M  V30 25 1 25 18
M  V30 26 1 25 21
M  V30 27 1 26 14
M  V30 28 1 27 1
M  V30 29 1 28 1
M  V30 30 1 29 2
M  V30 31 1 30 2
M  V30 32 1 31 3
M  V30 33 1 32 7
M  V30 34 1 33 7
M  V30 35 1 34 8
M  V30 36 1 35 8
M  V30 37 1 36 9
M  V30 38 1 37 9
M  V30 39 1 38 10
M  V30 40 1 39 10
M  V30 41 1 40 12
M  V30 42 1 41 12
M  V30 43 1 42 13
M  V30 44 1 43 14
M  V30 45 1 44 14
M  V30 46 1 45 15
M  V30 47 1 46 15
M  V30 48 1 47 16
M  V30 49 1 48 16
M  V30 50 1 49 18
M  V30 51 1 50 18
M  V30 52 1 19 51 CFG=1
M  V30 53 1 52 20
M  V30 54 1 53 20
M  V30 55 1 54 23
M  V30 56 1 55 24
M  V30 57 1 56 24
M  V30 58 1 57 25
M  V30 59 1 58 25
M  V30 60 1 59 26
M  V30 61 1 60 26
M  V30 62 1 61 26
M  V30 63 1 62 23
M  V30 END BOND
M  V30 END CTAB
M  END
>  <i_epik_Tot_Q>  (1) 
1

>  <i_epik_Tot_abs_Q>  (1) 
1

>  <i_i_glide_confnum>  (1) 
1057

>  <i_i_glide_lignum>  (1) 
50

>  <i_i_glide_posenum>  (1) 
397

>  <i_i_glide_rotatable_bonds>  (1) 
12

>  <i_lp_mmshare_version>  (1) 
72125

>  <i_m_source_file_index>  (1) 
30

>  <i_f3d_flags>  (1) 
0

>  <num_sample>  (1) 
100

>  <b_lp_Chiralities_Consistent>  (1) 
1

>  <r_epik_Charging_Adjusted_Penalty>  (1) 
1.4390288097636857e-06

>  <r_epik_Ionization_Penalty>  (1) 
0.023192080520664203

>  <r_epik_Ionization_Penalty_Charging>  (1) 
4.1514280511365775e-07

>  <r_epik_Ionization_Penalty_Neutral>  (1) 
0.023191665377859088

>  <r_epik_State_Penalty>  (1) 
1.023886004650028e-06

>  <r_glide_ring_energy>  (1) 
0

>  <r_i_docking_score>  (1) 
-7.4976422264892664

>  <r_i_glide_ecoul>  (1) 
-13.837086584464268

>  <r_i_glide_eff_state_penalty>  (1) 
1.023886004650028e-06

>  <r_i_glide_einternal>  (1) 
7.5358552218802108

>  <r_i_glide_emodel>  (1) 
-68.63663468985817

>  <r_i_glide_emodel_strain>  (1) 
0.73392069433052853

>  <r_i_glide_energy>  (1) 
-45.799618997839694

>  <r_i_glide_erotb>  (1) 
1.3985499384426772

>  <r_i_glide_esite>  (1) 
-0.29234838029701343

>  <r_i_glide_evdw>  (1) 
-31.962532413375424

>  <r_i_glide_gscore>  (1) 
-7.4976432503752708

>  <r_i_glide_gscore_strain>  (1) 
0

>  <r_i_glide_hbond>  (1) 
-0.34886628465148173

>  <r_i_glide_ligand_efficiency>  (1) 
-0.28837085486497177

>  <r_i_glide_ligand_efficiency_ln>  (1) 
-1.7607966751202486

>  <r_i_glide_ligand_efficiency_sa>  (1) 
-0.85429752378075152

>  <r_i_glide_lipo>  (1) 
-2.1116991660983651

>  <r_i_glide_metal>  (1) 
-0

>  <r_i_glide_rewards>  (1) 
-2.4695897494326755

>  <r_lp_Energy>  (1) 
24.237140999999998

>  <s_epik_Chemistry_Notes>  (1) 
This compound has an imine and may undergo hydrolysis. This compound has a N-S or N-O group and may undergo hydrolysis at high or low pH.

>  <s_epik_cmdline>  (1) 
J2VwaWtfcHl0aG9uJywgJy1waHQnLCAnMS4wJywgJy1waCcsICc3LjQnLCAnLXRuJywgJzgnLCAnLW1hJywgJzUwMCcsICctaW1hZScsICc8aW5maWxlLm1hZT4nLCAnLW9tYWUnLCAnPG91dGZpbGUubWFlPic=

>  <s_epik_input>  (1) 
RkMxPU5bQ0BASF0oW0NIMl1bQ0gyXVtDSDJdMSlDKD1PKU4oW0NIMl1bQ0gyXTIpW0NIMl1bQ0gyXVtDSF0yW0NIMl1bTkhdTihbT0hdKVtDSDJdW0NIMl1bQ0gyXVtDSDJdW0NIMl1bQ0gyXVtDSDNd

>  <s_glide_docking_method>  (1) 
confgen

>  <s_i_glide_gridfile>  (1) 
gpcr_drd2_6luq_protein_autoprepared_prepared

>  <s_lp_Force_Field>  (1) 
S-OPLS

>  <s_lp_Variant>  (1) 
DiffSBDD_29-1

>  <s_m_source_file>  (1) 
generated_generic_title2_ligand_DiffSBDD_2026-06-23_prepared.sdf

>  <GenAI_Model>  (1) 
DiffSBDD

>  <Protein>  (1) 
generic_title2

$$$$
DiffSBDD_76
     RDKit          3D

  0  0  0  0  0  0  0  0  0  0999 V3000
M  V30 BEGIN CTAB
M  V30 COUNTS 54 57 0 0 1
M  V30 BEGIN ATOM
M  V30 1 N 8.975410 5.989725 -8.847219 0 CHG=1
M  V30 2 N 7.382532 1.897099 -15.271656 0
M  V30 3 C 10.515473 7.080574 -7.250999 0 CFG=1
M  V30 4 C 7.899451 3.202799 -15.695622 0
M  V30 5 F 5.375529 4.477361 -10.495053 0
M  V30 6 C 7.587356 1.199837 -14.168899 0
M  V30 7 C 11.071447 7.397433 -5.828910 0
M  V30 8 C 9.273817 6.166451 -7.400126 0
M  V30 9 C 8.678353 4.900000 -13.001416 0
M  V30 10 C 7.864067 5.100217 -9.228102 0
M  V30 11 C 12.145482 7.949314 -3.263266 0
M  V30 12 N 6.575386 1.190252 -16.081052 0
M  V30 13 C 12.178964 8.933511 -4.262109 0
M  V30 14 C 11.564532 6.699180 -3.535228 0
M  V30 15 C 11.775582 9.669584 -6.598102 0
M  V30 16 N 8.409748 1.709145 -13.185027 0
M  V30 17 C 11.531234 9.190232 -8.022282 0
M  V30 18 C 11.018139 6.431504 -4.809614 0
M  V30 19 C 7.408993 4.600948 -13.543384 0
M  V30 20 C 10.279999 8.361056 -8.069575 0
M  V30 21 O 12.076036 10.832490 -6.384545 0
M  V30 22 C 6.298264 4.459372 -12.689639 0
M  V30 23 N 6.975068 0.041768 -14.106445 0
M  V30 24 C 7.233459 4.435974 -15.046778 0
M  V30 25 C 8.832593 5.056497 -11.606219 0
M  V30 26 C 6.447241 4.617282 -11.299892 0
M  V30 27 C 7.713084 4.919798 -10.748557 0
M  V30 28 C 6.348281 0.082126 -15.341009 0
M  V30 29 C 11.664071 8.655972 -5.549750 0
M  V30 30 H 9.810445 5.686011 -9.322260 0
M  V30 31 H 11.336224 6.544675 -7.731816 0
M  V30 32 H 8.975219 3.234272 -15.585039 0
M  V30 33 H 7.744360 3.276173 -16.773336 0
M  V30 34 H 8.413087 6.583952 -6.877314 0
M  V30 35 H 9.471334 5.190237 -6.976532 0
M  V30 36 H 9.533548 5.009369 -13.654088 0
M  V30 37 H 6.975418 5.590181 -8.857360 0
M  V30 38 H 7.918332 4.149209 -8.707487 0
M  V30 39 H 12.556090 8.154746 -2.285241 0
M  V30 40 H 12.628424 9.893934 -4.053259 0
M  V30 41 H 11.527130 5.943463 -2.763577 0
M  V30 42 H 8.596585 1.195237 -12.330421 0
M  V30 43 H 8.843916 2.615383 -13.276990 0
M  V30 44 H 11.471226 10.008457 -8.734590 0
M  V30 45 H 12.389678 8.594367 -8.335143 0
M  V30 46 H 10.575415 5.493635 -4.999548 0
M  V30 47 H 10.064636 8.173310 -9.120750 0
M  V30 48 H 9.428032 8.919211 -7.674024 0
M  V30 49 H 5.326477 4.230574 -13.101851 0
M  V30 50 H 7.615817 5.338740 -15.524062 0
M  V30 51 H 6.172203 4.420332 -15.272926 0
M  V30 52 H 9.804411 5.282905 -11.200101 0
M  V30 53 H 5.716114 -0.717031 -15.699527 0
M  V30 54 H 8.691235 6.899879 -9.198530 0
M  V30 END ATOM
M  V30 BEGIN BOND
M  V30 1 1 4 2
M  V30 2 1 6 2
M  V30 3 1 7 3
M  V30 4 1 8 1
M  V30 5 1 8 3
M  V30 6 1 10 1
M  V30 7 1 12 2
M  V30 8 1 13 11
M  V30 9 2 14 11
M  V30 10 1 16 6
M  V30 11 1 17 15
M  V30 12 2 18 7
M  V30 13 1 18 14
M  V30 14 1 19 9
M  V30 15 1 20 3
M  V30 16 1 20 17
M  V30 17 2 21 15
M  V30 18 2 22 19
M  V30 19 2 23 6
M  V30 20 1 24 4
M  V30 21 1 24 19
M  V30 22 2 25 9
M  V30 23 1 26 5
M  V30 24 1 26 22
M  V30 25 1 27 10
M  V30 26 1 27 25
M  V30 27 2 27 26
M  V30 28 2 28 12
M  V30 29 1 28 23
M  V30 30 1 29 7
M  V30 31 2 29 13
M  V30 32 1 29 15
M  V30 33 1 30 1
M  V30 34 1 3 31 CFG=3
M  V30 35 1 32 4
M  V30 36 1 33 4
M  V30 37 1 34 8
M  V30 38 1 35 8
M  V30 39 1 36 9
M  V30 40 1 37 10
M  V30 41 1 38 10
M  V30 42 1 39 11
M  V30 43 1 40 13
M  V30 44 1 41 14
M  V30 45 1 42 16
M  V30 46 1 43 16
M  V30 47 1 44 17
M  V30 48 1 45 17
M  V30 49 1 46 18
M  V30 50 1 47 20
M  V30 51 1 48 20
M  V30 52 1 49 22
M  V30 53 1 50 24
M  V30 54 1 51 24
M  V30 55 1 52 25
M  V30 56 1 53 28
M  V30 57 1 54 1
M  V30 END BOND
M  V30 END CTAB
M  END
>  <i_epik_Tot_Q>  (1) 
1

>  <i_epik_Tot_abs_Q>  (1) 
1

>  <i_i_glide_confnum>  (1) 
27

>  <i_i_glide_lignum>  (1) 
125

>  <i_i_glide_posenum>  (1) 
286

>  <i_i_glide_rotatable_bonds>  (1) 
7

>  <i_lp_mmshare_version>  (1) 
72125

>  <i_m_source_file_index>  (1) 
77

>  <i_f3d_flags>  (1) 
0

>  <num_sample>  (1) 
100

>  <b_lp_Chiralities_Consistent>  (1) 
1

>  <r_epik_Charging_Adjusted_Penalty>  (1) 
0.13114515656656739

>  <r_epik_Ionization_Penalty>  (1) 
0.066343571056588849

>  <r_epik_Ionization_Penalty_Charging>  (1) 
0.065572578283283764

>  <r_epik_Ionization_Penalty_Neutral>  (1) 
0.00077099277330508725

>  <r_epik_State_Penalty>  (1) 
0.065572578283283625

>  <r_glide_ring_energy>  (1) 
0

>  <r_i_docking_score>  (1) 
-7.4494696110023328

>  <r_i_glide_ecoul>  (1) 
-6.8918572087729082

>  <r_i_glide_eff_state_penalty>  (1) 
0.065572578283283625

>  <r_i_glide_einternal>  (1) 
9.0473205177313183

>  <r_i_glide_emodel>  (1) 
-52.743499254511399

>  <r_i_glide_emodel_strain>  (1) 
0.99231621971392059

>  <r_i_glide_energy>  (1) 
-33.576062291556624

>  <r_i_glide_erotb>  (1) 
0.75361898126616078

>  <r_i_glide_esite>  (1) 
-0.15728696403942077

>  <r_i_glide_evdw>  (1) 
-26.684205082783716

>  <r_i_glide_gscore>  (1) 
-7.5150421892856167

>  <r_i_glide_gscore_strain>  (1) 
0

>  <r_i_glide_hbond>  (1) 
-0.45596764615528451

>  <r_i_glide_ligand_efficiency>  (1) 
-0.25687826244835632

>  <r_i_glide_ligand_efficiency_ln>  (1) 
-1.7057396386691313

>  <r_i_glide_ligand_efficiency_sa>  (1) 
-0.78921140787303012

>  <r_i_glide_lipo>  (1) 
-2.6491280765375995

>  <r_i_glide_metal>  (1) 
-0

>  <r_i_glide_rewards>  (1) 
-2.6382896483643505

>  <r_lp_Energy>  (1) 
27.011975

>  <r_lp_tautomer_probability>  (1) 
0.99994999147066566

>  <s_epik_cmdline>  (1) 
J2VwaWtfcHl0aG9uJywgJy1waHQnLCAnMS4wJywgJy1waCcsICc3LjQnLCAnLXRuJywgJzgnLCAnLW1hJywgJzUwMCcsICctaW1hZScsICc8aW5maWxlLm1hZT4nLCAnLW9tYWUnLCAnPG91dGZpbGUubWFlPic=

>  <s_epik_input>  (1) 
W2NIXTFbY0hdW2NIXVtjSF1jKGMxMilDKD1PKVtDSDJdW0NIMl1bQ0BIXTJbQ0gyXVtOSF1bQ0gyXWMoYyhGKVtjSF0zKVtjSF1bY0hdYzNbQ0gyXVtDSDJdbjRjKFtOSDJdKW5bY0hdbjQ=

>  <s_glide_docking_method>  (1) 
confgen

>  <s_i_glide_gridfile>  (1) 
gpcr_drd2_6luq_protein_autoprepared_prepared

>  <s_lp_Force_Field>  (1) 
S-OPLS

>  <s_lp_Variant>  (1) 
DiffSBDD_76-2

>  <s_m_source_file>  (1) 
generated_generic_title2_ligand_DiffSBDD_2026-06-23_prepared.sdf

>  <GenAI_Model>  (1) 
DiffSBDD

>  <Protein>  (1) 
generic_title2

$$$$
DiffSBDD_86
     RDKit          3D

  0  0  0  0  0  0  0  0  0  0999 V3000
M  V30 BEGIN CTAB
M  V30 COUNTS 114 117 0 0 1
M  V30 BEGIN ATOM
M  V30 1 C 13.611496 -0.253730 -18.041535 0
M  V30 2 C 14.438198 0.775681 -18.812328 0 CFG=1
M  V30 3 C 10.526001 8.248440 -9.516954 0
M  V30 4 C 4.598886 8.325757 -19.585354 0
M  V30 5 C 7.772788 2.801405 -19.787541 0 CFG=2
M  V30 6 C 7.686805 4.237558 -12.553416 0
M  V30 7 O 8.614483 0.762070 -18.798317 0
M  V30 8 C 7.154025 2.059884 -17.419653 0 CFG=2
M  V30 9 O 7.998611 -1.609900 -17.185016 0
M  V30 10 C 7.542071 0.638879 -17.864417 0 CFG=2
M  V30 11 C 7.265424 3.554923 -21.032346 0
M  V30 12 O 15.795778 0.390240 -18.785032 0
M  V30 13 N 8.975392 6.761970 -10.784930 0
M  V30 14 C 11.758438 3.879085 -20.636258 0
M  V30 15 C 11.312604 0.233645 -19.156975 0 CFG=1
M  V30 16 C 7.240739 4.413956 -14.924568 0 CFG=2
M  V30 17 O 11.976842 -0.555271 -21.746269 0
M  V30 18 C 4.355210 6.504593 -17.744517 0
M  V30 19 C 8.378260 1.382485 -20.072039 0 CFG=1
M  V30 20 C 7.409593 0.449094 -20.868255 0
M  V30 21 C 10.973994 1.512455 -19.944071 0 CFG=2
M  V30 22 O 12.340152 6.790246 -13.571028 0
M  V30 23 O 6.544217 3.880171 -12.266906 0
M  V30 24 N 10.541410 5.854626 -12.385038 0 CHG=1
M  V30 25 C 9.734466 1.533501 -20.811827 0
M  V30 26 C 6.671530 2.766152 -18.707402 0
M  V30 27 C 10.882545 8.303703 -6.985462 0
M  V30 28 O 8.125825 4.512774 -13.803195 0
M  V30 29 P 12.268815 0.443642 -20.679430 0 CFG=1
M  V30 30 C 4.627472 7.769708 -16.971376 0 CFG=2
M  V30 31 C 14.003344 0.969612 -20.273068 0
M  V30 32 C 7.930138 -0.990693 -21.032031 0
M  V30 33 C 5.164677 7.593372 -18.387059 0 CFG=2
M  V30 34 F 12.975418 7.990281 -14.052756 0
M  V30 35 C 5.563867 7.930045 -15.774763 0
M  V30 36 C 9.805011 1.671735 -22.154157 0
M  V30 37 C 11.500635 2.879475 -19.497919 0
M  V30 38 C 9.461062 5.737985 -11.557680 0
M  V30 39 C 12.141736 0.166353 -17.876941 0
M  V30 40 C 8.034525 4.234031 -16.248226 0 CFG=2
M  V30 41 C 8.769617 4.407403 -11.485929 0
M  V30 42 C 9.504398 8.133130 -10.665258 0
M  V30 43 C 8.006305 -0.277089 -16.727598 0
M  V30 44 C 8.311838 2.773540 -16.652661 0
M  V30 45 O 9.243848 4.968472 -16.192446 0
M  V30 46 C 6.673180 6.885065 -15.585881 0
M  V30 47 C 6.203919 5.562356 -14.965356 0
M  V30 48 C 9.869388 8.158362 -8.127122 0
M  V30 49 C 11.340051 7.049534 -12.617690 0
M  V30 50 H 14.043712 -0.381928 -17.048278 0
M  V30 51 H 13.681320 -1.225360 -18.526960 0
M  V30 52 H 14.370365 1.730920 -18.291615 0
M  V30 53 H 11.283233 7.468627 -9.599325 0
M  V30 54 H 11.055162 9.197609 -9.601214 0
M  V30 55 H 3.532770 8.516505 -19.461783 0
M  V30 56 H 5.114566 9.276017 -19.721570 0
M  V30 57 H 4.741437 7.726133 -20.485050 0
M  V30 58 H 8.574007 3.418294 -19.384319 0
M  V30 59 H 6.302986 1.983143 -16.742263 0
M  V30 60 H 7.966545 -2.194613 -16.432654 0
M  V30 61 H 6.671935 0.163131 -18.312096 0
M  V30 62 H 6.440361 3.033476 -21.515822 0
M  V30 63 H 6.905340 4.547365 -20.761759 0
M  V30 64 H 8.051604 3.701804 -21.770404 0
M  V30 65 H 15.865340 -0.504039 -19.093130 0
M  V30 66 H 8.147954 6.575763 -10.218917 0
M  V30 67 H 12.197205 4.797437 -20.246133 0
M  V30 68 H 12.443450 3.478458 -21.382102 0
M  V30 69 H 10.833503 4.153920 -21.142717 0
M  V30 70 H 10.594861 -0.582015 -19.229705 0
M  V30 71 H 6.662494 3.498218 -14.791016 0
M  V30 72 H 3.332650 6.390226 -18.093505 0
M  V30 73 H 4.903742 5.590311 -17.559119 0
M  V30 74 H 6.427944 0.406657 -20.402423 0
M  V30 75 H 7.195125 0.849959 -21.856084 0
M  V30 76 H 6.296686 3.767632 -18.509484 0
M  V30 77 H 5.803963 2.234303 -19.099521 0
M  V30 78 H 10.386575 8.236187 -6.016282 0
M  V30 79 H 11.636838 7.516900 -7.028000 0
M  V30 80 H 11.394909 9.265102 -7.030942 0
M  V30 81 H 3.740945 8.389977 -16.856693 0
M  V30 82 H 14.156972 2.002368 -20.582803 0
M  V30 83 H 14.635582 0.370297 -20.928798 0
M  V30 84 H 7.215784 -1.601580 -21.584411 0
M  V30 85 H 8.875687 -1.021632 -21.574344 0
M  V30 86 H 8.090118 -1.467955 -20.064643 0
M  V30 87 H 6.224550 7.376974 -18.490429 0
M  V30 88 H 4.975405 8.001752 -14.861270 0
M  V30 89 H 6.042121 8.897795 -15.909350 0
M  V30 90 H 10.755877 1.774639 -22.654396 0
M  V30 91 H 8.916697 1.684969 -22.764051 0
M  V30 92 H 10.790269 3.314037 -18.797348 0
M  V30 93 H 12.418922 2.759425 -18.929302 0
M  V30 94 H 12.082076 1.122919 -17.358473 0
M  V30 95 H 11.650844 -0.546152 -17.213338 0
M  V30 96 H 7.482069 4.687938 -17.062798 0
M  V30 97 H 8.316059 4.289415 -10.501332 0
M  V30 98 H 9.501263 3.606075 -11.591070 0
M  V30 99 H 9.809288 8.599849 -11.588233 0
M  V30 100 H 8.654464 8.760039 -10.388995 0
M  V30 101 H 7.326541 -0.203319 -15.878036 0
M  V30 102 H 8.999762 -0.008014 -16.384924 0
M  V30 103 H 8.573248 2.212910 -15.756196 0
M  V30 104 H 9.205889 2.743200 -17.273293 0
M  V30 105 H 9.710965 4.707887 -15.413744 0
M  V30 106 H 7.443768 7.300794 -14.937252 0
M  V30 107 H 7.135446 6.720293 -16.552393 0
M  V30 108 H 5.375344 5.190265 -15.543950 0
M  V30 109 H 5.788474 5.752915 -13.976136 0
M  V30 110 H 9.101771 8.926796 -8.026891 0
M  V30 111 H 9.349424 7.204477 -8.022662 0
M  V30 112 H 10.702375 7.794073 -13.073441 0
M  V30 113 H 11.808239 7.423767 -11.710748 0
M  V30 114 H 10.833792 5.027076 -12.898679 0
M  V30 END ATOM
M  V30 BEGIN BOND
M  V30 1 1 2 1
M  V30 2 1 10 7
M  V30 3 1 10 8
M  V30 4 1 11 5
M  V30 5 1 12 2
M  V30 6 1 19 5
M  V30 7 1 19 7
M  V30 8 1 19 20 CFG=3
M  V30 9 1 21 15
M  V30 10 2 23 6
M  V30 11 1 25 19
M  V30 12 1 25 21
M  V30 13 1 26 5
M  V30 14 1 26 8
M  V30 15 1 28 6
M  V30 16 1 28 16
M  V30 17 1 29 15
M  V30 18 2 29 17
M  V30 19 1 29 21
M  V30 20 1 30 18
M  V30 21 1 31 2
M  V30 22 1 29 31 CFG=1
M  V30 23 1 32 20
M  V30 24 1 33 4
M  V30 25 1 33 18
M  V30 26 1 33 30
M  V30 27 1 34 22
M  V30 28 1 35 30
M  V30 29 2 36 25
M  V30 30 1 37 14
M  V30 31 1 21 37 CFG=1
M  V30 32 1 38 13
M  V30 33 2 38 24
M  V30 34 1 39 1
M  V30 35 1 39 15
M  V30 36 1 40 16
M  V30 37 1 41 6
M  V30 38 1 41 38
M  V30 39 1 42 3
M  V30 40 1 42 13
M  V30 41 1 43 9
M  V30 42 1 43 10
M  V30 43 1 44 8
M  V30 44 1 44 40
M  V30 45 1 45 40
M  V30 46 1 46 35
M  V30 47 1 47 16
M  V30 48 1 47 46
M  V30 49 1 48 3
M  V30 50 1 48 27
M  V30 51 1 49 22
M  V30 52 1 49 24
M  V30 53 1 50 1
M  V30 54 1 51 1
M  V30 55 1 2 52 CFG=1
M  V30 56 1 53 3
M  V30 57 1 54 3
M  V30 58 1 55 4
M  V30 59 1 56 4
M  V30 60 1 57 4
M  V30 61 1 5 58 CFG=1
M  V30 62 1 8 59 CFG=1
M  V30 63 1 60 9
M  V30 64 1 10 61 CFG=3
M  V30 65 1 62 11
M  V30 66 1 63 11
M  V30 67 1 64 11
M  V30 68 1 65 12
M  V30 69 1 66 13
M  V30 70 1 67 14
M  V30 71 1 68 14
M  V30 72 1 69 14
M  V30 73 1 15 70 CFG=3
M  V30 74 1 16 71 CFG=1
M  V30 75 1 72 18
M  V30 76 1 73 18
M  V30 77 1 74 20
M  V30 78 1 75 20
M  V30 79 1 76 26
M  V30 80 1 77 26
M  V30 81 1 78 27
M  V30 82 1 79 27
M  V30 83 1 80 27
M  V30 84 1 30 81 CFG=3
M  V30 85 1 82 31
M  V30 86 1 83 31
M  V30 87 1 84 32
M  V30 88 1 85 32
M  V30 89 1 86 32
M  V30 90 1 33 87 CFG=1
M  V30 91 1 88 35
M  V30 92 1 89 35
M  V30 93 1 90 36
M  V30 94 1 91 36
M  V30 95 1 92 37
M  V30 96 1 93 37
M  V30 97 1 94 39
M  V30 98 1 95 39
M  V30 99 1 40 96 CFG=3
M  V30 100 1 97 41
M  V30 101 1 98 41
M  V30 102 1 99 42
M  V30 103 1 100 42
M  V30 104 1 101 43
M  V30 105 1 102 43
M  V30 106 1 103 44
M  V30 107 1 104 44
M  V30 108 1 105 45
M  V30 109 1 106 46
M  V30 110 1 107 46
M  V30 111 1 108 47
M  V30 112 1 109 47
M  V30 113 1 110 48
M  V30 114 1 111 48
M  V30 115 1 112 49
M  V30 116 1 113 49
M  V30 117 1 114 24
M  V30 END BOND
M  V30 END CTAB
M  END
>  <i_epik_Tot_Q>  (1) 
1

>  <i_epik_Tot_abs_Q>  (1) 
1

>  <i_i_glide_confnum>  (1) 
5493

>  <i_i_glide_lignum>  (1) 
153

>  <i_i_glide_posenum>  (1) 
180

>  <i_i_glide_rotatable_bonds>  (1) 
25

>  <i_lp_mmshare_version>  (1) 
72125

>  <i_m_source_file_index>  (1) 
87

>  <i_f3d_flags>  (1) 
0

>  <num_sample>  (1) 
100

>  <b_lp_Chiralities_Consistent>  (1) 
1

>  <r_epik_Charging_Adjusted_Penalty>  (1) 
0.16001273794586685

>  <r_epik_Ionization_Penalty>  (1) 
0.080843455150849161

>  <r_epik_Ionization_Penalty_Charging>  (1) 
0.080842825825004877

>  <r_epik_Ionization_Penalty_Neutral>  (1) 
6.2932584428919515e-07

>  <r_epik_State_Penalty>  (1) 
0.079169912120861954

>  <r_glide_ring_energy>  (1) 
0

>  <r_i_docking_score>  (1) 
-7.3679232134166348

>  <r_i_glide_ecoul>  (1) 
-13.528528694815108

>  <r_i_glide_eff_state_penalty>  (1) 
0.079169912120861954

>  <r_i_glide_einternal>  (1) 
15.29677303235184

>  <r_i_glide_emodel>  (1) 
-59.341780490327935

>  <r_i_glide_emodel_strain>  (1) 
1.5744689398514993

>  <r_i_glide_energy>  (1) 
-49.349776998340367

>  <r_i_glide_erotb>  (1) 
0.57386026422142977

>  <r_i_glide_esite>  (1) 
-0.098727288079325626

>  <r_i_glide_evdw>  (1) 
-35.821248303525259

>  <r_i_glide_gscore>  (1) 
-7.4470931255374966

>  <r_i_glide_gscore_strain>  (1) 
0

>  <r_i_glide_hbond>  (1) 
-0.55615402890691423

>  <r_i_glide_ligand_efficiency>  (1) 
-0.15036577986564562

>  <r_i_glide_ligand_efficiency_ln>  (1) 
-1.5061720922705104

>  <r_i_glide_ligand_efficiency_sa>  (1) 
-0.55023435685441424

>  <r_i_glide_lipo>  (1) 
-2.8247371385763858

>  <r_i_glide_metal>  (1) 
-0

>  <r_i_glide_rewards>  (1) 
-0.72099321479777179

>  <r_lp_Energy>  (1) 
50.891874999999999

>  <s_epik_Chemistry_Notes>  (1) 
This compound has an ester and may undergo hydrolysis at high or low pH. This compound has an imine and may undergo hydrolysis. This compound contains an acetal/aminal-like group ( X-CH(R)-Y where X, Y are N, S, or O) that may be acid/base labile, releasing an aldehyde.

>  <s_epik_cmdline>  (1) 
J2VwaWtfcHl0aG9uJywgJy1waHQnLCAnMS4wJywgJy1waCcsICc3LjQnLCAnLXRuJywgJzgnLCAnLW1hJywgJzUwMCcsICctaW1hZScsICc8aW5maWxlLm1hZT4nLCAnLW9tYWUnLCAnPG91dGZpbGUubWFlPic=

>  <s_epik_input>  (1) 
W09IXVtDQEBIXShbQ0gyXTEpW0NIMl1bQ0gyXVtDQEhdKFAxMj1PKVtDQEBdMihbQ0gyXVtDSDNdKUMoPVtDSDJdKVtDQF0zKFtDSDJdW0NIM10pW0NAQEhdKFtDSDNdKVtDSDJdW0NAQEhdKFtDQEBIXShPMylbQ0gyXVtPSF0pW0NIMl1bQ0BIXShbT0hdKVtDQEhdKFtDSDJdW0NIMl1bQ0gyXVtDQEBIXTRbQ0gyXVtDQEhdNFtDSDNdKU9DKD1PKVtDSDJdQyg9TlxbQ0gyXU9GKVxbTkhdW0NIMl1bQ0gyXVtDSDJdW0NIM10=

>  <s_glide_docking_method>  (1) 
confgen

>  <s_i_glide_gridfile>  (1) 
gpcr_drd2_6luq_protein_autoprepared_prepared

>  <s_lp_Force_Field>  (1) 
S-OPLS

>  <s_lp_Variant>  (1) 
DiffSBDD_86-1

>  <s_m_source_file>  (1) 
generated_generic_title2_ligand_DiffSBDD_2026-06-23_prepared.sdf

>  <GenAI_Model>  (1) 
DiffSBDD

>  <Protein>  (1) 
generic_title2

$$$$
DiffSBDD_36
     RDKit          3D

  0  0  0  0  0  0  0  0  0  0999 V3000
M  V30 BEGIN CTAB
M  V30 COUNTS 49 51 0 0 1
M  V30 BEGIN ATOM
M  V30 1 C 7.240826 4.368565 -13.107058 0
M  V30 2 C 11.242068 7.670610 -6.114132 0
M  V30 3 N 8.575410 5.990220 -9.930972 0
M  V30 4 O 11.367510 7.590210 -10.609005 0 CHG=-1
M  V30 5 C 11.679713 9.687257 -5.348939 0
M  V30 6 O 6.161523 7.589929 -11.985025 0
M  V30 7 C 7.164061 6.738086 -12.498112 0 CFG=2
M  V30 8 C 11.636669 8.905413 -4.280486 0
M  V30 9 C 11.446534 8.929784 -6.470768 0
M  V30 10 C 9.820961 6.355716 -9.268504 0 CFG=2
M  V30 11 C 12.330557 8.396888 -2.036208 0
M  V30 12 C 7.016885 6.562946 -14.010560 0
M  V30 13 C 11.907108 6.522959 -3.578789 0
M  V30 14 C 10.994193 6.521037 -7.050846 0
M  V30 15 O 9.375384 4.390436 -11.314032 0
M  V30 16 C 9.619994 6.525722 -7.748552 0
M  V30 17 C 7.696480 5.228652 -14.284904 0
M  V30 18 C 5.964039 4.958264 -11.006373 0
M  V30 19 C 10.354515 7.670693 -9.878970 0
M  V30 20 C 8.487742 5.184640 -11.002525 0
M  V30 21 C 12.375086 6.973991 -2.388698 0
M  V30 22 O 9.776034 8.740588 -9.584983 0
M  V30 23 C 11.217580 7.424946 -4.574959 0 CFG=2
M  V30 24 C 7.204822 5.307008 -11.862803 0 CFG=1
M  V30 25 C 11.996816 9.323285 -2.953293 0
M  V30 26 H 6.238564 3.996165 -13.324244 0
M  V30 27 H 7.862884 3.479948 -12.994035 0
M  V30 28 H 7.806933 6.639895 -9.730711 0
M  V30 29 H 11.958858 10.729653 -5.350773 0
M  V30 30 H 6.365054 7.743365 -11.057557 0
M  V30 31 H 8.112236 7.256594 -12.333546 0
M  V30 32 H 11.477298 9.292275 -7.488695 0
M  V30 33 H 10.555696 5.575584 -9.400111 0
M  V30 34 H 12.623009 8.710575 -1.045146 0
M  V30 35 H 5.962148 6.496666 -14.282274 0
M  V30 36 H 7.455713 7.387560 -14.572259 0
M  V30 37 H 11.965757 5.481110 -3.822645 0
M  V30 38 H 11.169115 5.590089 -6.519363 0
M  V30 39 H 11.775414 6.583885 -7.797149 0
M  V30 40 H 9.051693 7.430482 -7.519183 0
M  V30 41 H 9.025538 5.697796 -7.359643 0
M  V30 42 H 7.419735 4.805185 -15.250679 0
M  V30 43 H 8.782271 5.345475 -14.266898 0
M  V30 44 H 5.043629 5.085355 -11.576366 0
M  V30 45 H 5.997325 3.924612 -10.660921 0
M  V30 46 H 5.886046 5.595295 -10.125739 0
M  V30 47 H 12.812197 6.272158 -1.694619 0
M  V30 48 H 10.175413 7.190232 -4.399704 0
M  V30 49 H 12.026212 10.370958 -2.697344 0
M  V30 END ATOM
M  V30 BEGIN BOND
M  V30 1 1 7 6
M  V30 2 2 8 5
M  V30 3 2 9 2
M  V30 4 1 9 5
M  V30 5 1 10 3
M  V30 6 1 12 7
M  V30 7 1 14 2
M  V30 8 1 16 10
M  V30 9 1 16 14
M  V30 10 1 17 1
M  V30 11 1 17 12
M  V30 12 1 19 4
M  V30 13 1 19 10
M  V30 14 1 20 3
M  V30 15 2 20 15
M  V30 16 1 21 11
M  V30 17 2 21 13
M  V30 18 2 22 19
M  V30 19 1 23 2
M  V30 20 1 23 8
M  V30 21 1 23 13
M  V30 22 1 24 1
M  V30 23 1 24 7
M  V30 24 1 24 18 CFG=1
M  V30 25 1 24 20
M  V30 26 1 25 8
M  V30 27 2 25 11
M  V30 28 1 26 1
M  V30 29 1 27 1
M  V30 30 1 28 3
M  V30 31 1 29 5
M  V30 32 1 30 6
M  V30 33 1 7 31 CFG=3
M  V30 34 1 32 9
M  V30 35 1 10 33 CFG=1
M  V30 36 1 34 11
M  V30 37 1 35 12
M  V30 38 1 36 12
M  V30 39 1 37 13
M  V30 40 1 38 14
M  V30 41 1 39 14
M  V30 42 1 40 16
M  V30 43 1 41 16
M  V30 44 1 42 17
M  V30 45 1 43 17
M  V30 46 1 44 18
M  V30 47 1 45 18
M  V30 48 1 46 18
M  V30 49 1 47 21
M  V30 50 1 23 48 CFG=1
M  V30 51 1 49 25
M  V30 END BOND
M  V30 END CTAB
M  END
>  <i_epik_Tot_Q>  (1) 
-1

>  <i_epik_Tot_abs_Q>  (1) 
1

>  <i_i_glide_confnum>  (1) 
408

>  <i_i_glide_lignum>  (1) 
61

>  <i_i_glide_posenum>  (1) 
242

>  <i_i_glide_rotatable_bonds>  (1) 
8

>  <i_lp_mmshare_version>  (1) 
72125

>  <i_m_source_file_index>  (1) 
37

>  <i_f3d_flags>  (1) 
0

>  <num_sample>  (1) 
100

>  <b_lp_Chiralities_Consistent>  (1) 
1

>  <r_epik_Charging_Adjusted_Penalty>  (1) 
6.3624129575878713e-05

>  <r_epik_Ionization_Penalty>  (1) 
6.3751974232529901e-05

>  <r_epik_Ionization_Penalty_Charging>  (1) 
6.3624129575878713e-05

>  <r_epik_Ionization_Penalty_Neutral>  (1) 
1.2784465665118319e-07

>  <r_epik_State_Penalty>  (1) 
-0

>  <r_glide_ring_energy>  (1) 
0.8562244315245402

>  <r_i_docking_score>  (1) 
-7.2802374935994303

>  <r_i_glide_ecoul>  (1) 
-8.4318322431694277

>  <r_i_glide_eff_state_penalty>  (1) 
-0

>  <r_i_glide_einternal>  (1) 
4.5514588009410737

>  <r_i_glide_emodel>  (1) 
-47.509085505026391

>  <r_i_glide_emodel_strain>  (1) 
0.99334249472587999

>  <r_i_glide_energy>  (1) 
-37.374691041180597

>  <r_i_glide_erotb>  (1) 
0.80862173255752579

>  <r_i_glide_esite>  (1) 
-0.15158725448392096

>  <r_i_glide_evdw>  (1) 
-28.942858798011166

>  <r_i_glide_gscore>  (1) 
-7.2802374935994303

>  <r_i_glide_gscore_strain>  (1) 
0

>  <r_i_glide_hbond>  (1) 
-0.30139708522629605

>  <r_i_glide_ligand_efficiency>  (1) 
-0.2912094997439772

>  <r_i_glide_ligand_efficiency_ln>  (1) 
-1.7256344570954201

>  <r_i_glide_ligand_efficiency_sa>  (1) 
-0.85150174278748447

>  <r_i_glide_lipo>  (1) 
-3.0864237033052717

>  <r_i_glide_metal>  (1) 
-0

>  <r_i_glide_rewards>  (1) 
-1.837533406765494

>  <r_lp_Energy>  (1) 
45.619743

>  <r_lp_tautomer_probability>  (1) 
1

>  <s_epik_cmdline>  (1) 
J2VwaWtfcHl0aG9uJywgJy1waHQnLCAnMS4wJywgJy1waCcsICc3LjQnLCAnLXRuJywgJzgnLCAnLW1hJywgJzUwMCcsICctaW1hZScsICc8aW5maWxlLm1hZT4nLCAnLW9tYWUnLCAnPG91dGZpbGUubWFlPic=

>  <s_epik_input>  (1) 
W09IXVtDQEBIXTFbQ0gyXVtDSDJdW0NIMl1bQ0BAXTEoW0NIM10pQyg9TylbTkhdW0NAQEhdKEMoPU8pW09IXSlbQ0gyXVtDSDJdQyg9W0NIXVtDSF09MilbQ0BIXShDMjMpW0NIXT1bQ0hdW0NIXT1bQ0hdMw==

>  <s_glide_docking_method>  (1) 
confgen

>  <s_i_glide_gridfile>  (1) 
gpcr_drd2_6luq_protein_autoprepared_prepared

>  <s_lp_Force_Field>  (1) 
S-OPLS

>  <s_lp_Variant>  (1) 
DiffSBDD_36-1

>  <s_m_source_file>  (1) 
generated_generic_title2_ligand_DiffSBDD_2026-06-23_prepared.sdf

>  <GenAI_Model>  (1) 
DiffSBDD

>  <Protein>  (1) 
generic_title2

$$$$
DiffSBDD_95
     RDKit          3D

  0  0  0  0  0  0  0  0  0  0999 V3000
M  V30 BEGIN CTAB
M  V30 COUNTS 66 71 0 0 1
M  V30 BEGIN ATOM
M  V30 1 C 7.548468 2.998777 -16.672339 0
M  V30 2 C 9.978195 4.780951 -17.934778 0
M  V30 3 C 9.088412 5.798162 -18.692417 0
M  V30 4 C 7.524693 4.455641 -16.226816 0 CFG=1
M  V30 5 C 11.564851 7.315617 -9.237682 0
M  V30 6 O 10.052359 9.190208 -5.986635 0
M  V30 7 N 11.235274 7.712434 -7.124607 0
M  V30 8 C 9.654947 8.390233 -10.157075 0
M  V30 9 C 8.688441 5.315636 -15.797115 0 CFG=2
M  V30 10 N 8.189297 5.937945 -10.385048 0 CHG=1
M  V30 11 C 12.938806 8.558614 -2.606074 0
M  V30 12 C 9.481676 5.861264 -9.665793 0
M  V30 13 S 6.576749 5.590176 -17.291369 0
M  V30 14 C 11.775408 8.176996 -4.711190 0
M  V30 15 C 8.318747 5.836758 -11.856493 0
M  V30 16 C 10.019687 4.912754 -16.391770 0
M  V30 17 C 7.776473 4.720822 -14.754257 0 CFG=1
M  V30 18 C 6.766084 5.556305 -13.975505 0 CFG=1
M  V30 19 C 11.386781 6.895855 -4.263030 0
M  V30 20 C 6.040775 4.902940 -12.821252 0
M  V30 21 C 11.352691 8.667986 -6.074014 0 CFG=2
M  V30 22 C 12.098092 7.590228 -8.104168 0
M  V30 23 N 9.297642 8.790226 -7.185180 0
M  V30 24 C 9.879724 7.534221 -7.604121 0 CFG=1
M  V30 25 C 10.056228 7.239627 -9.239467 0 CFG=1
M  V30 26 C 7.576293 5.471345 -18.823872 0
M  V30 27 C 12.549818 9.007438 -3.878722 0
M  V30 28 C 6.992466 6.042821 -12.554363 0 CFG=1
M  V30 29 C 12.553943 7.286121 -2.161066 0
M  V30 30 C 11.775437 6.458018 -2.983783 0
M  V30 31 H 8.384336 2.470817 -16.213446 0
M  V30 32 H 6.631698 2.499993 -16.359953 0
M  V30 33 H 7.633938 2.895343 -17.750993 0
M  V30 34 H 11.002846 4.881928 -18.294287 0
M  V30 35 H 9.687573 3.771298 -18.221030 0
M  V30 36 H 9.230952 6.790222 -18.286077 0
M  V30 37 H 9.477427 5.863070 -19.708557 0
M  V30 38 H 12.127869 7.190234 -10.150354 0
M  V30 39 H 8.595858 8.488204 -10.384995 0
M  V30 40 H 9.939174 9.312521 -9.651291 0
M  V30 41 H 10.175711 8.356595 -11.115018 0
M  V30 42 H 8.570942 6.390209 -15.770170 0
M  V30 43 H 7.608473 5.172795 -10.076234 0
M  V30 44 H 13.534901 9.190208 -1.971041 0
M  V30 45 H 10.175403 5.329534 -10.304906 0
M  V30 46 H 9.354038 5.224746 -8.789969 0
M  V30 47 H 9.019278 6.585250 -12.226375 0
M  V30 48 H 8.729016 4.860648 -12.117140 0
M  V30 49 H 10.750145 5.672541 -16.109772 0
M  V30 50 H 10.372559 3.990257 -15.955637 0
M  V30 51 H 8.216836 3.897661 -14.194823 0
M  V30 52 H 6.174365 6.243550 -14.576642 0
M  V30 53 H 10.787079 6.256270 -4.894988 0
M  V30 54 H 6.353829 3.903771 -12.523024 0
M  V30 55 H 4.975475 5.099523 -12.729773 0
M  V30 56 H 12.020137 9.468754 -6.396599 0
M  V30 57 H 13.144545 7.739842 -7.881345 0
M  V30 58 H 8.353702 8.610982 -6.863824 0
M  V30 59 H 9.411227 6.704603 -7.073725 0
M  V30 60 H 7.133564 6.171079 -19.533112 0
M  V30 61 H 7.445832 4.485643 -19.268487 0
M  V30 62 H 12.846917 9.988327 -4.218565 0
M  V30 63 H 6.529100 6.998365 -12.312248 0
M  V30 64 H 12.857453 6.942739 -1.185041 0
M  V30 65 H 11.476755 5.492382 -2.632054 0
M  V30 66 H 7.707612 6.809853 -10.101145 0
M  V30 END ATOM
M  V30 BEGIN BOND
M  V30 1 1 3 2
M  V30 2 1 4 1 CFG=1
M  V30 3 1 9 4
M  V30 4 1 12 10
M  V30 5 1 13 4
M  V30 6 1 15 10
M  V30 7 1 16 2
M  V30 8 1 16 9
M  V30 9 1 17 4
M  V30 10 1 17 9
M  V30 11 1 18 17
M  V30 12 1 19 14
M  V30 13 1 20 18
M  V30 14 1 21 6
M  V30 15 1 21 7
M  V30 16 1 21 14
M  V30 17 2 22 5
M  V30 18 1 22 7
M  V30 19 1 23 6
M  V30 20 1 24 7
M  V30 21 1 24 23
M  V30 22 1 25 5
M  V30 23 1 25 8 CFG=3
M  V30 24 1 25 12
M  V30 25 1 25 24
M  V30 26 1 26 3
M  V30 27 1 26 13
M  V30 28 1 27 11
M  V30 29 2 27 14
M  V30 30 1 28 15
M  V30 31 1 28 18
M  V30 32 1 28 20
M  V30 33 2 29 11
M  V30 34 2 30 19
M  V30 35 1 30 29
M  V30 36 1 31 1
M  V30 37 1 32 1
M  V30 38 1 33 1
M  V30 39 1 34 2
M  V30 40 1 35 2
M  V30 41 1 36 3
M  V30 42 1 37 3
M  V30 43 1 38 5
M  V30 44 1 39 8
M  V30 45 1 40 8
M  V30 46 1 41 8
M  V30 47 1 9 42 CFG=3
M  V30 48 1 43 10
M  V30 49 1 44 11
M  V30 50 1 45 12
M  V30 51 1 46 12
M  V30 52 1 47 15
M  V30 53 1 48 15
M  V30 54 1 49 16
M  V30 55 1 50 16
M  V30 56 1 17 51 CFG=1
M  V30 57 1 18 52 CFG=3
M  V30 58 1 53 19
M  V30 59 1 54 20
M  V30 60 1 55 20
M  V30 61 1 21 56 CFG=3
M  V30 62 1 57 22
M  V30 63 1 58 23
M  V30 64 1 24 59 CFG=1
M  V30 65 1 60 26
M  V30 66 1 61 26
M  V30 67 1 62 27
M  V30 68 1 28 63 CFG=3
M  V30 69 1 64 29
M  V30 70 1 65 30
M  V30 71 1 66 10
M  V30 END BOND
M  V30 END CTAB
M  END
>  <i_epik_Tot_Q>  (1) 
1

>  <i_epik_Tot_abs_Q>  (1) 
1

>  <i_i_glide_confnum>  (1) 
102

>  <i_i_glide_lignum>  (1) 
183

>  <i_i_glide_posenum>  (1) 
170

>  <i_i_glide_rotatable_bonds>  (1) 
6

>  <i_lp_mmshare_version>  (1) 
72125

>  <i_m_source_file_index>  (1) 
96

>  <i_f3d_flags>  (1) 
0

>  <num_sample>  (1) 
100

>  <b_lp_Chiralities_Consistent>  (1) 
1

>  <r_epik_Charging_Adjusted_Penalty>  (1) 
0.0020531937962160901

>  <r_epik_Ionization_Penalty>  (1) 
0.0020536898614070998

>  <r_epik_Ionization_Penalty_Charging>  (1) 
0.0020531937962160901

>  <r_epik_Ionization_Penalty_Neutral>  (1) 
4.9606519100973171e-07

>  <r_epik_State_Penalty>  (1) 
-0

>  <r_glide_ring_energy>  (1) 
0

>  <r_i_docking_score>  (1) 
-7.2514126889937334

>  <r_i_glide_ecoul>  (1) 
-9.6117817901854448

>  <r_i_glide_eff_state_penalty>  (1) 
-0

>  <r_i_glide_einternal>  (1) 
9.4962701113481103

>  <r_i_glide_emodel>  (1) 
-42.07498061583788

>  <r_i_glide_emodel_strain>  (1) 
1.776252207148417

>  <r_i_glide_energy>  (1) 
-33.080044306490123

>  <r_i_glide_erotb>  (1) 
0.65422182105081872

>  <r_i_glide_esite>  (1) 
-0.21955010467531971

>  <r_i_glide_evdw>  (1) 
-23.46826251630468

>  <r_i_glide_gscore>  (1) 
-7.2514126889937334

>  <r_i_glide_gscore_strain>  (1) 
0

>  <r_i_glide_hbond>  (1) 
-0.16844362601374802

>  <r_i_glide_ligand_efficiency>  (1) 
-0.24171375629979111

>  <r_i_glide_ligand_efficiency_ln>  (1) 
-1.6475999734088649

>  <r_i_glide_ligand_efficiency_sa>  (1) 
-0.75106084071092039

>  <r_i_glide_lipo>  (1) 
-2.884146313797709

>  <r_i_glide_metal>  (1) 
-0

>  <r_i_glide_rewards>  (1) 
-2.0183140712147245

>  <r_lp_Energy>  (1) 
45.618919999999996

>  <r_lp_tautomer_probability>  (1) 
1

>  <s_epik_Chemistry_Notes>  (1) 
This compound has an imine and may undergo hydrolysis. This compound contains an acetal/aminal-like group ( X-CH(R)-Y where X, Y are N, S, or O) that may be acid/base labile, releasing an aldehyde. This compound has a N-S or N-O group and may undergo hydrolysis at high or low pH.

>  <s_epik_cmdline>  (1) 
J2VwaWtfcHl0aG9uJywgJy1waHQnLCAnMS4wJywgJy1waCcsICc3LjQnLCAnLXRuJywgJzgnLCAnLW1hJywgJzUwMCcsICctaW1hZScsICc8aW5maWxlLm1hZT4nLCAnLW9tYWUnLCAnPG91dGZpbGUubWFlPic=

>  <s_epik_input>  (1) 
UzFbQ0gyXVtDSDJdW0NIMl1bQ0gyXVtDQEBIXShbQ0BdMTJbQ0gzXSlbQ0BIXTJbQ0BIXTNbQ0gyXVtDQEhdM1tDSDJdW05IXVtDSDJdW0NAXShbQ0gzXSkoW0NIXT1bQ0hdNClbQ0BASF0oTjQ1KVtOSF1PW0NASF01YzZbY0hdW2NIXVtjSF1bY0hdW2NIXTY=

>  <s_glide_docking_method>  (1) 
confgen

>  <s_i_glide_gridfile>  (1) 
gpcr_drd2_6luq_protein_autoprepared_prepared

>  <s_lp_Force_Field>  (1) 
S-OPLS

>  <s_lp_Variant>  (1) 
DiffSBDD_95-1

>  <s_m_source_file>  (1) 
generated_generic_title2_ligand_DiffSBDD_2026-06-23_prepared.sdf

>  <GenAI_Model>  (1) 
DiffSBDD

>  <Protein>  (1) 
generic_title2

$$$$
DiffSBDD_36
     RDKit          3D

  0  0  0  0  0  0  0  0  0  0999 V3000
M  V30 BEGIN CTAB
M  V30 COUNTS 49 51 0 0 1
M  V30 BEGIN ATOM
M  V30 1 C 6.988077 4.181326 -13.048750 0
M  V30 2 C 11.308939 7.924326 -6.394784 0
M  V30 3 N 8.575408 5.990226 -10.116962 0
M  V30 4 O 10.575200 7.190185 -11.726940 0 CHG=-1
M  V30 5 C 11.775187 9.873040 -5.492653 0
M  V30 6 O 6.272917 7.570589 -11.985020 0
M  V30 7 C 7.017528 6.564919 -12.646327 0 CFG=2
M  V30 8 C 11.616286 9.040877 -4.474088 0
M  V30 9 C 11.597022 9.186539 -6.666449 0
M  V30 10 C 9.871919 6.372168 -9.572165 0 CFG=2
M  V30 11 C 12.175422 8.375711 -2.234549 0
M  V30 12 C 6.437934 6.309961 -14.047427 0
M  V30 13 C 11.775314 6.616834 -3.914180 0
M  V30 14 C 11.085611 6.836941 -7.410038 0
M  V30 15 O 9.193733 4.200666 -11.352604 0
M  V30 16 C 9.723850 6.913973 -8.133635 0
M  V30 17 C 6.082159 4.826432 -14.094827 0
M  V30 18 C 5.854149 4.985794 -10.941398 0
M  V30 19 C 10.544289 7.426674 -10.499558 0
M  V30 20 C 8.377526 5.083426 -11.087053 0
M  V30 21 C 12.200585 6.976483 -2.676847 0
M  V30 22 O 11.070166 8.438200 -9.984995 0
M  V30 23 C 11.150840 7.604752 -4.878767 0 CFG=2
M  V30 24 C 7.060658 5.201980 -11.886741 0 CFG=1
M  V30 25 C 11.913047 9.366288 -3.106058 0
M  V30 26 H 6.618591 3.205369 -12.734110 0
M  V30 27 H 7.965737 4.021653 -13.508325 0
M  V30 28 H 7.824841 6.651370 -9.901063 0
M  V30 29 H 12.107898 10.891675 -5.420124 0
M  V30 30 H 6.575320 7.647888 -11.074312 0
M  V30 31 H 8.028445 6.959352 -12.775750 0
M  V30 32 H 11.727315 9.595773 -7.657987 0
M  V30 33 H 10.473136 5.481989 -9.492070 0
M  V30 34 H 12.425611 8.617581 -1.211761 0
M  V30 35 H 5.575046 6.939240 -14.267799 0
M  V30 36 H 7.196085 6.530915 -14.800113 0
M  V30 37 H 11.813915 5.590207 -4.224664 0
M  V30 38 H 11.231731 5.855560 -6.958412 0
M  V30 39 H 11.895499 6.954048 -8.123392 0
M  V30 40 H 9.334380 7.934167 -8.148532 0
M  V30 41 H 8.988428 6.332271 -7.577027 0
M  V30 42 H 5.035738 4.692809 -13.818476 0
M  V30 43 H 6.223921 4.396936 -15.086196 0
M  V30 44 H 4.916888 5.015508 -11.491277 0
M  V30 45 H 5.908684 4.020651 -10.437270 0
M  V30 46 H 5.793559 5.751389 -10.166725 0
M  V30 47 H 12.587815 6.218896 -2.010877 0
M  V30 48 H 10.077690 7.482541 -4.785025 0
M  V30 49 H 11.957845 10.390225 -2.783931 0
M  V30 END ATOM
M  V30 BEGIN BOND
M  V30 1 1 7 6
M  V30 2 2 8 5
M  V30 3 2 9 2
M  V30 4 1 9 5
M  V30 5 1 10 3
M  V30 6 1 12 7
M  V30 7 1 14 2
M  V30 8 1 16 10
M  V30 9 1 16 14
M  V30 10 1 17 1
M  V30 11 1 17 12
M  V30 12 1 19 4
M  V30 13 1 19 10
M  V30 14 1 20 3
M  V30 15 2 20 15
M  V30 16 1 21 11
M  V30 17 2 21 13
M  V30 18 2 22 19
M  V30 19 1 23 2
M  V30 20 1 23 8
M  V30 21 1 23 13
M  V30 22 1 24 1
M  V30 23 1 24 7
M  V30 24 1 24 18 CFG=1
M  V30 25 1 24 20
M  V30 26 1 25 8
M  V30 27 2 25 11
M  V30 28 1 26 1
M  V30 29 1 27 1
M  V30 30 1 28 3
M  V30 31 1 29 5
M  V30 32 1 30 6
M  V30 33 1 7 31 CFG=3
M  V30 34 1 32 9
M  V30 35 1 10 33 CFG=1
M  V30 36 1 34 11
M  V30 37 1 35 12
M  V30 38 1 36 12
M  V30 39 1 37 13
M  V30 40 1 38 14
M  V30 41 1 39 14
M  V30 42 1 40 16
M  V30 43 1 41 16
M  V30 44 1 42 17
M  V30 45 1 43 17
M  V30 46 1 44 18
M  V30 47 1 45 18
M  V30 48 1 46 18
M  V30 49 1 47 21
M  V30 50 1 23 48 CFG=3
M  V30 51 1 49 25
M  V30 END BOND
M  V30 END CTAB
M  END
>  <i_epik_Tot_Q>  (1) 
-1

>  <i_epik_Tot_abs_Q>  (1) 
1

>  <i_i_glide_confnum>  (1) 
490

>  <i_i_glide_lignum>  (1) 
61

>  <i_i_glide_posenum>  (1) 
200

>  <i_i_glide_rotatable_bonds>  (1) 
8

>  <i_lp_mmshare_version>  (1) 
72125

>  <i_m_source_file_index>  (1) 
37

>  <i_f3d_flags>  (1) 
0

>  <num_sample>  (1) 
100

>  <b_lp_Chiralities_Consistent>  (1) 
1

>  <r_epik_Charging_Adjusted_Penalty>  (1) 
6.3624129575878713e-05

>  <r_epik_Ionization_Penalty>  (1) 
6.3751974232529901e-05

>  <r_epik_Ionization_Penalty_Charging>  (1) 
6.3624129575878713e-05

>  <r_epik_Ionization_Penalty_Neutral>  (1) 
1.2784465665118319e-07

>  <r_epik_State_Penalty>  (1) 
-0

>  <r_glide_ring_energy>  (1) 
0.97457985238571121

>  <r_i_docking_score>  (1) 
-7.1787181082905995

>  <r_i_glide_ecoul>  (1) 
-8.1691996070824757

>  <r_i_glide_eff_state_penalty>  (1) 
-0

>  <r_i_glide_einternal>  (1) 
6.1320867380049897

>  <r_i_glide_emodel>  (1) 
-46.032168680639913

>  <r_i_glide_emodel_strain>  (1) 
3.6498556996421883

>  <r_i_glide_energy>  (1) 
-39.531506235994172

>  <r_i_glide_erotb>  (1) 
0.80862173255752579

>  <r_i_glide_esite>  (1) 
-0.12291842281038057

>  <r_i_glide_evdw>  (1) 
-31.362306628911693

>  <r_i_glide_gscore>  (1) 
-7.1787181082905995

>  <r_i_glide_gscore_strain>  (1) 
0

>  <r_i_glide_hbond>  (1) 
-0.30399999999999999

>  <r_i_glide_ligand_efficiency>  (1) 
-0.28714872433162397

>  <r_i_glide_ligand_efficiency_ln>  (1) 
-1.7015713204867471

>  <r_i_glide_ligand_efficiency_sa>  (1) 
-0.83962796345086499

>  <r_i_glide_lipo>  (1) 
-3.1075745112892648

>  <r_i_glide_metal>  (1) 
-0

>  <r_i_glide_rewards>  (1) 
-1.6593516342405243

>  <r_lp_Energy>  (1) 
45.619743

>  <r_lp_tautomer_probability>  (1) 
1

>  <s_epik_cmdline>  (1) 
J2VwaWtfcHl0aG9uJywgJy1waHQnLCAnMS4wJywgJy1waCcsICc3LjQnLCAnLXRuJywgJzgnLCAnLW1hJywgJzUwMCcsICctaW1hZScsICc8aW5maWxlLm1hZT4nLCAnLW9tYWUnLCAnPG91dGZpbGUubWFlPic=

>  <s_epik_input>  (1) 
W09IXVtDQEBIXTFbQ0gyXVtDSDJdW0NIMl1bQ0BAXTEoW0NIM10pQyg9TylbTkhdW0NAQEhdKEMoPU8pW09IXSlbQ0gyXVtDSDJdQyg9W0NIXVtDSF09MilbQ0BIXShDMjMpW0NIXT1bQ0hdW0NIXT1bQ0hdMw==

>  <s_glide_docking_method>  (1) 
confgen

>  <s_i_glide_gridfile>  (1) 
gpcr_drd2_6luq_protein_autoprepared_prepared

>  <s_lp_Force_Field>  (1) 
S-OPLS

>  <s_lp_Variant>  (1) 
DiffSBDD_36-1

>  <s_m_source_file>  (1) 
generated_generic_title2_ligand_DiffSBDD_2026-06-23_prepared.sdf

>  <GenAI_Model>  (1) 
DiffSBDD

>  <Protein>  (1) 
generic_title2

$$$$
DiffSBDD_44
     RDKit          3D

  0  0  0  0  0  0  0  0  0  0999 V3000
M  V30 BEGIN CTAB
M  V30 COUNTS 46 48 0 0 1
M  V30 BEGIN ATOM
M  V30 1 C 5.752155 4.239130 -12.011513 0 CFG=2
M  V30 2 C 10.447043 6.570780 -7.227262 0
M  V30 3 C 11.365853 7.752510 -5.216404 0
M  V30 4 C 6.437982 3.753575 -13.210737 0 CFG=1
M  V30 5 O 10.225159 7.592746 -9.368943 0
M  V30 6 C 12.206999 7.905913 -2.516185 0
M  V30 7 C 11.375129 6.594024 -4.398247 0
M  V30 8 C 8.323719 4.697877 -11.500439 0
M  V30 9 O 11.752770 10.127806 -5.422148 0
M  V30 10 O 6.468318 -0.008160 -13.702520 0
M  V30 11 C 10.932954 7.682680 -6.632286 0
M  V30 12 C 11.775490 8.993504 -4.659598 0
M  V30 13 O 8.178429 2.094828 -13.207566 0
M  V30 14 C 5.944130 1.177689 -13.136576 0
M  V30 15 C 9.398982 5.344439 -9.238988 0
M  V30 16 N 6.321010 7.223979 -11.985025 0 CHG=1
M  V30 17 C 8.333217 5.647591 -10.297946 0
M  V30 18 O 4.997790 3.856110 -13.183442 0
M  V30 19 C 7.079794 4.879947 -12.370449 0 CFG=2
M  V30 20 C 6.970669 2.330567 -13.186238 0
M  V30 21 C 11.793674 6.677209 -3.055256 0
M  V30 22 C 10.049565 6.607414 -8.650571 0
M  V30 23 C 6.998951 6.301812 -12.923133 0
M  V30 24 C 12.195042 9.061680 -3.311259 0
M  V30 25 H 5.706550 3.564005 -11.156322 0
M  V30 26 H 10.332937 5.644457 -6.691284 0
M  V30 27 H 12.528747 7.964786 -1.487457 0
M  V30 28 H 11.064697 5.640512 -4.792225 0
M  V30 29 H 9.222637 4.843928 -12.101226 0
M  V30 30 H 8.386727 3.673600 -11.145072 0
M  V30 31 H 11.401049 9.994090 -6.287622 0
M  V30 32 H 5.831868 -0.713642 -13.609856 0
M  V30 33 H 11.019970 8.592275 -7.208141 0
M  V30 34 H 5.025749 1.450971 -13.661602 0
M  V30 35 H 5.665347 0.974362 -12.102464 0
M  V30 36 H 10.173658 4.721957 -9.675071 0
M  V30 37 H 8.951827 4.756061 -8.435163 0
M  V30 38 H 6.187964 8.127691 -12.418599 0
M  V30 39 H 6.859703 7.349481 -11.127282 0
M  V30 40 H 8.469656 6.657867 -10.677240 0
M  V30 41 H 7.359864 5.617321 -9.800889 0
M  V30 42 H 11.793751 5.795490 -2.438058 0
M  V30 43 H 8.002601 6.664479 -13.168965 0
M  V30 44 H 6.422727 6.275935 -13.851946 0
M  V30 45 H 12.502111 10.002361 -2.885285 0
M  V30 46 H 5.425734 6.837477 -11.728550 0
M  V30 END ATOM
M  V30 BEGIN BOND
M  V30 1 1 4 1
M  V30 2 2 7 3
M  V30 3 2 11 2
M  V30 4 1 11 3
M  V30 5 1 12 3
M  V30 6 1 12 9
M  V30 7 1 14 10
M  V30 8 1 17 8
M  V30 9 1 17 15
M  V30 10 1 18 1
M  V30 11 1 18 4
M  V30 12 1 19 1
M  V30 13 1 19 4
M  V30 14 1 19 8 CFG=1
M  V30 15 1 4 20 CFG=1
M  V30 16 2 20 13
M  V30 17 1 20 14
M  V30 18 2 21 6
M  V30 19 1 21 7
M  V30 20 1 22 2
M  V30 21 2 22 5
M  V30 22 1 22 15
M  V30 23 1 23 16
M  V30 24 1 23 19
M  V30 25 1 24 6
M  V30 26 2 24 12
M  V30 27 1 1 25 CFG=1
M  V30 28 1 26 2
M  V30 29 1 27 6
M  V30 30 1 28 7
M  V30 31 1 29 8
M  V30 32 1 30 8
M  V30 33 1 31 9
M  V30 34 1 32 10
M  V30 35 1 33 11
M  V30 36 1 34 14
M  V30 37 1 35 14
M  V30 38 1 36 15
M  V30 39 1 37 15
M  V30 40 1 38 16
M  V30 41 1 39 16
M  V30 42 1 40 17
M  V30 43 1 41 17
M  V30 44 1 42 21
M  V30 45 1 43 23
M  V30 46 1 44 23
M  V30 47 1 45 24
M  V30 48 1 46 16
M  V30 END BOND
M  V30 END CTAB
M  END
>  <i_epik_Tot_Q>  (1) 
1

>  <i_epik_Tot_abs_Q>  (1) 
1

>  <i_i_glide_confnum>  (1) 
225

>  <i_i_glide_lignum>  (1) 
71

>  <i_i_glide_posenum>  (1) 
259

>  <i_i_glide_rotatable_bonds>  (1) 
11

>  <i_lp_mmshare_version>  (1) 
72125

>  <i_m_source_file_index>  (1) 
45

>  <i_f3d_flags>  (1) 
0

>  <num_sample>  (1) 
100

>  <b_lp_Chiralities_Consistent>  (1) 
1

>  <r_epik_Charging_Adjusted_Penalty>  (1) 
0.0039975134785533318

>  <r_epik_Ionization_Penalty>  (1) 
0.0083805373542956835

>  <r_epik_Ionization_Penalty_Charging>  (1) 
0.0039975134785533318

>  <r_epik_Ionization_Penalty_Neutral>  (1) 
0.0043830238757423508

>  <r_epik_State_Penalty>  (1) 
-0

>  <r_glide_ring_energy>  (1) 
0

>  <r_i_docking_score>  (1) 
-7.1741303089916491

>  <r_i_glide_ecoul>  (1) 
-7.7824963938737195

>  <r_i_glide_eff_state_penalty>  (1) 
-0

>  <r_i_glide_einternal>  (1) 
6.3630121603863614

>  <r_i_glide_emodel>  (1) 
-66.789248063844482

>  <r_i_glide_emodel_strain>  (1) 
0.37785027997132659

>  <r_i_glide_energy>  (1) 
-44.01968470551698

>  <r_i_glide_erotb>  (1) 
1.3638172886518747

>  <r_i_glide_esite>  (1) 
-0.1590467221125596

>  <r_i_glide_evdw>  (1) 
-36.237188311643258

>  <r_i_glide_gscore>  (1) 
-7.1741303089916491

>  <r_i_glide_gscore_strain>  (1) 
0

>  <r_i_glide_hbond>  (1) 
-0.34384186272963724

>  <r_i_glide_ligand_efficiency>  (1) 
-0.29892209620798538

>  <r_i_glide_ligand_efficiency_ln>  (1) 
-1.7170985823306619

>  <r_i_glide_ligand_efficiency_sa>  (1) 
-0.86224052962271336

>  <r_i_glide_lipo>  (1) 
-2.8808488622473307

>  <r_i_glide_metal>  (1) 
-0

>  <r_i_glide_rewards>  (1) 
-2.174976275890776

>  <r_lp_Energy>  (1) 
24.892022999999998

>  <r_lp_tautomer_probability>  (1) 
1

>  <s_epik_cmdline>  (1) 
J2VwaWtfcHl0aG9uJywgJy1waHQnLCAnMS4wJywgJy1waCcsICc3LjQnLCAnLXRuJywgJzgnLCAnLW1hJywgJzUwMCcsICctaW1hZScsICc8aW5maWxlLm1hZT4nLCAnLW9tYWUnLCAnPG91dGZpbGUubWFlPic=

>  <s_epik_input>  (1) 
W09IXVtDSDJdQyg9TylbQ0BdMTJbQ0BIXShPMSlbQ0BAXTIoW0NIMl1bTkgyXSlbQ0gyXVtDSDJdW0NIMl1DKD1PKS9bQ0hdPVtDSF0vYzNbY0hdW2NIXVtjSF1bY0hdYzNbT0hd

>  <s_glide_docking_method>  (1) 
confgen

>  <s_i_glide_gridfile>  (1) 
gpcr_drd2_6luq_protein_autoprepared_prepared

>  <s_lp_Force_Field>  (1) 
S-OPLS

>  <s_lp_Variant>  (1) 
DiffSBDD_44-1

>  <s_m_source_file>  (1) 
generated_generic_title2_ligand_DiffSBDD_2026-06-23_prepared.sdf

>  <GenAI_Model>  (1) 
DiffSBDD

>  <Protein>  (1) 
generic_title2

$$$$
DiffSBDD_95
     RDKit          3D

  0  0  0  0  0  0  0  0  0  0999 V3000
M  V30 BEGIN CTAB
M  V30 COUNTS 66 71 0 0 1
M  V30 BEGIN ATOM
M  V30 1 C 7.341587 -0.009773 -12.838004 0
M  V30 2 C 7.335885 0.123482 -16.244611 0
M  V30 3 C 5.807413 0.367613 -16.377317 0
M  V30 4 C 6.758733 1.219116 -13.418431 0 CFG=1
M  V30 5 C 11.552470 7.658531 -9.576972 0
M  V30 6 O 9.534358 8.789355 -6.223631 0
M  V30 7 N 11.073706 7.770594 -7.444268 0
M  V30 8 C 9.376063 8.390185 -10.496567 0
M  V30 9 C 7.229582 2.002970 -14.622811 0 CFG=2
M  V30 10 N 9.845133 5.949902 -11.712325 0 CHG=1
M  V30 11 C 12.485118 8.798391 -2.821343 0
M  V30 12 C 9.660070 5.966454 -10.238568 0
M  V30 13 S 5.013904 0.975191 -13.585033 0
M  V30 14 C 11.463834 8.219490 -4.962161 0
M  V30 15 C 9.196363 4.829508 -12.398434 0
M  V30 16 C 8.124556 1.256539 -15.560879 0
M  V30 17 C 7.456934 2.548400 -13.244259 0 CFG=1
M  V30 18 C 6.785643 3.873983 -12.914084 0 CFG=1
M  V30 19 C 11.374732 6.873809 -4.552768 0
M  V30 20 C 6.733282 4.498864 -11.538563 0
M  V30 21 C 10.939411 8.645232 -6.315556 0 CFG=2
M  V30 22 C 11.987808 7.909117 -8.390099 0
M  V30 23 N 8.975435 8.471912 -7.525322 0
M  V30 24 C 9.796799 7.392428 -8.019082 0 CFG=1
M  V30 25 C 10.074974 7.319237 -9.653897 0 CFG=1
M  V30 26 C 4.943697 -0.014628 -15.141365 0
M  V30 27 C 12.019705 9.181863 -4.092180 0
M  V30 28 C 7.694669 5.040309 -12.565188 0 CFG=1
M  V30 29 C 12.389709 7.457124 -2.412785 0
M  V30 30 C 11.834273 6.498732 -3.274780 0
M  V30 31 H 8.431110 0.017949 -12.834266 0
M  V30 32 H 6.976320 -0.119017 -11.816448 0
M  V30 33 H 6.975385 -0.858844 -13.409137 0
M  V30 34 H 7.762211 -0.039445 -17.234323 0
M  V30 35 H 7.493548 -0.809075 -15.701613 0
M  V30 36 H 5.592002 1.364669 -16.756994 0
M  V30 37 H 5.463417 -0.297731 -17.170307 0
M  V30 38 H 12.155631 7.730174 -10.468199 0
M  V30 39 H 8.397574 8.084833 -10.845814 0
M  V30 40 H 9.251215 9.319545 -9.948171 0
M  V30 41 H 9.934110 8.612330 -11.405060 0
M  V30 42 H 6.521438 2.619316 -15.168750 0
M  V30 43 H 9.459331 6.801224 -12.091089 0
M  V30 44 H 12.910273 9.534790 -2.157483 0
M  V30 45 H 10.175379 5.138452 -9.755690 0
M  V30 46 H 8.607109 5.812653 -10.002299 0
M  V30 47 H 9.643939 4.717212 -13.388606 0
M  V30 48 H 9.417710 3.929081 -11.826172 0
M  V30 49 H 8.509963 1.957209 -16.301600 0
M  V30 50 H 8.973090 0.872299 -15.007994 0
M  V30 51 H 8.469106 2.416436 -12.880632 0
M  V30 52 H 5.923709 4.115880 -13.535811 0
M  V30 53 H 10.946487 6.132684 -5.210615 0
M  V30 54 H 7.176161 3.990087 -10.688604 0
M  V30 55 H 5.859393 5.103883 -11.308077 0
M  V30 56 H 11.367255 9.615925 -6.576470 0
M  V30 57 H 12.979306 8.222012 -8.095705 0
M  V30 58 H 8.039002 8.105793 -7.353419 0
M  V30 59 H 9.474865 6.441163 -7.596006 0
M  V30 60 H 3.893936 -0.063718 -15.424591 0
M  V30 61 H 5.242303 -1.024753 -14.896425 0
M  V30 62 H 12.078375 10.213012 -4.398182 0
M  V30 63 H 7.432297 5.987583 -13.033675 0
M  V30 64 H 12.743140 7.162011 -1.437791 0
M  V30 65 H 11.761724 5.477916 -2.957352 0
M  V30 66 H 10.832360 5.925309 -11.925056 0
M  V30 END ATOM
M  V30 BEGIN BOND
M  V30 1 1 3 2
M  V30 2 1 4 1 CFG=1
M  V30 3 1 9 4
M  V30 4 1 12 10
M  V30 5 1 13 4
M  V30 6 1 15 10
M  V30 7 1 16 2
M  V30 8 1 16 9
M  V30 9 1 17 4
M  V30 10 1 17 9
M  V30 11 1 18 17
M  V30 12 1 19 14
M  V30 13 1 20 18
M  V30 14 1 21 6
M  V30 15 1 21 7
M  V30 16 1 21 14
M  V30 17 2 22 5
M  V30 18 1 22 7
M  V30 19 1 23 6
M  V30 20 1 24 7
M  V30 21 1 24 23
M  V30 22 1 25 5
M  V30 23 1 25 8 CFG=3
M  V30 24 1 25 12
M  V30 25 1 25 24
M  V30 26 1 26 3
M  V30 27 1 26 13
M  V30 28 1 27 11
M  V30 29 2 27 14
M  V30 30 1 28 15
M  V30 31 1 28 18
M  V30 32 1 28 20
M  V30 33 2 29 11
M  V30 34 2 30 19
M  V30 35 1 30 29
M  V30 36 1 31 1
M  V30 37 1 32 1
M  V30 38 1 33 1
M  V30 39 1 34 2
M  V30 40 1 35 2
M  V30 41 1 36 3
M  V30 42 1 37 3
M  V30 43 1 38 5
M  V30 44 1 39 8
M  V30 45 1 40 8
M  V30 46 1 41 8
M  V30 47 1 9 42 CFG=3
M  V30 48 1 43 10
M  V30 49 1 44 11
M  V30 50 1 45 12
M  V30 51 1 46 12
M  V30 52 1 47 15
M  V30 53 1 48 15
M  V30 54 1 49 16
M  V30 55 1 50 16
M  V30 56 1 17 51 CFG=1
M  V30 57 1 18 52 CFG=3
M  V30 58 1 53 19
M  V30 59 1 54 20
M  V30 60 1 55 20
M  V30 61 1 21 56 CFG=3
M  V30 62 1 57 22
M  V30 63 1 58 23
M  V30 64 1 24 59 CFG=1
M  V30 65 1 60 26
M  V30 66 1 61 26
M  V30 67 1 62 27
M  V30 68 1 28 63 CFG=3
M  V30 69 1 64 29
M  V30 70 1 65 30
M  V30 71 1 66 10
M  V30 END BOND
M  V30 END CTAB
M  END
>  <i_epik_Tot_Q>  (1) 
1

>  <i_epik_Tot_abs_Q>  (1) 
1

>  <i_i_glide_confnum>  (1) 
33

>  <i_i_glide_lignum>  (1) 
183

>  <i_i_glide_posenum>  (1) 
117

>  <i_i_glide_rotatable_bonds>  (1) 
6

>  <i_lp_mmshare_version>  (1) 
72125

>  <i_m_source_file_index>  (1) 
96

>  <i_f3d_flags>  (1) 
0

>  <num_sample>  (1) 
100

>  <b_lp_Chiralities_Consistent>  (1) 
1

>  <r_epik_Charging_Adjusted_Penalty>  (1) 
0.0020531937962160901

>  <r_epik_Ionization_Penalty>  (1) 
0.0020536898614070998

>  <r_epik_Ionization_Penalty_Charging>  (1) 
0.0020531937962160901

>  <r_epik_Ionization_Penalty_Neutral>  (1) 
4.9606519100973171e-07

>  <r_epik_State_Penalty>  (1) 
-0

>  <r_glide_ring_energy>  (1) 
0

>  <r_i_docking_score>  (1) 
-7.1332505719531438

>  <r_i_glide_ecoul>  (1) 
-5.9598626495203533

>  <r_i_glide_eff_state_penalty>  (1) 
-0

>  <r_i_glide_einternal>  (1) 
2.432079022416346

>  <r_i_glide_emodel>  (1) 
-40.818696221442728

>  <r_i_glide_emodel_strain>  (1) 
1.1189803407729642

>  <r_i_glide_energy>  (1) 
-27.88728062208958

>  <r_i_glide_erotb>  (1) 
0.65422182105081872

>  <r_i_glide_esite>  (1) 
-0.16489982999857097

>  <r_i_glide_evdw>  (1) 
-21.927417972569227

>  <r_i_glide_gscore>  (1) 
-7.1332505719531438

>  <r_i_glide_gscore_strain>  (1) 
0

>  <r_i_glide_hbond>  (1) 
-0.17223094192000157

>  <r_i_glide_ligand_efficiency>  (1) 
-0.23777501906510479

>  <r_i_glide_ligand_efficiency_ln>  (1) 
-1.6207522529378586

>  <r_i_glide_ligand_efficiency_sa>  (1) 
-0.73882226834289222

>  <r_i_glide_lipo>  (1) 
-3.455853232609388

>  <r_i_glide_metal>  (1) 
-0

>  <r_i_glide_rewards>  (1) 
-2.0041380924194883

>  <r_lp_Energy>  (1) 
45.618919999999996

>  <r_lp_tautomer_probability>  (1) 
1

>  <s_epik_Chemistry_Notes>  (1) 
This compound has an imine and may undergo hydrolysis. This compound contains an acetal/aminal-like group ( X-CH(R)-Y where X, Y are N, S, or O) that may be acid/base labile, releasing an aldehyde. This compound has a N-S or N-O group and may undergo hydrolysis at high or low pH.

>  <s_epik_cmdline>  (1) 
J2VwaWtfcHl0aG9uJywgJy1waHQnLCAnMS4wJywgJy1waCcsICc3LjQnLCAnLXRuJywgJzgnLCAnLW1hJywgJzUwMCcsICctaW1hZScsICc8aW5maWxlLm1hZT4nLCAnLW9tYWUnLCAnPG91dGZpbGUubWFlPic=

>  <s_epik_input>  (1) 
UzFbQ0gyXVtDSDJdW0NIMl1bQ0gyXVtDQEBIXShbQ0BdMTJbQ0gzXSlbQ0BIXTJbQ0BIXTNbQ0gyXVtDQEhdM1tDSDJdW05IXVtDSDJdW0NAXShbQ0gzXSkoW0NIXT1bQ0hdNClbQ0BASF0oTjQ1KVtOSF1PW0NASF01YzZbY0hdW2NIXVtjSF1bY0hdW2NIXTY=

>  <s_glide_docking_method>  (1) 
confgen

>  <s_i_glide_gridfile>  (1) 
gpcr_drd2_6luq_protein_autoprepared_prepared

>  <s_lp_Force_Field>  (1) 
S-OPLS

>  <s_lp_Variant>  (1) 
DiffSBDD_95-1

>  <s_m_source_file>  (1) 
generated_generic_title2_ligand_DiffSBDD_2026-06-23_prepared.sdf

>  <GenAI_Model>  (1) 
DiffSBDD

>  <Protein>  (1) 
generic_title2

$$$$
DiffSBDD_29
     RDKit          3D

  0  0  0  0  0  0  0  0  0  0999 V3000
M  V30 BEGIN CTAB
M  V30 COUNTS 62 63 0 0 1
M  V30 BEGIN ATOM
M  V30 1 C 7.943064 6.138433 -11.983567 0
M  V30 2 C 9.298332 7.516550 -7.154703 0
M  V30 3 C 8.277025 4.885673 -11.151115 0
M  V30 4 O 7.375408 3.681361 -15.872182 0
M  V30 5 C 7.134247 4.705889 -15.227637 0
M  V30 6 F 7.020449 6.221943 -19.647215 0
M  V30 7 C 11.072329 7.623092 -5.296519 0
M  V30 8 C 5.295651 7.246038 -18.213369 0
M  V30 9 C 11.775409 8.582628 -4.310239 0
M  V30 10 C 10.329433 8.379349 -6.403897 0
M  V30 11 N 9.824163 6.921502 -8.377908 0
M  V30 12 C 5.270463 6.388018 -15.884468 0
M  V30 13 O 9.959961 8.027576 -9.315099 0
M  V30 14 C 11.964195 6.721021 -2.490327 0
M  V30 15 C 12.618948 7.913759 -3.206481 0
M  V30 16 C 9.358881 5.188122 -10.101316 0
M  V30 17 C 6.547868 6.390288 -18.402209 0
M  V30 18 C 8.706290 3.771019 -12.123399 0
M  V30 19 C 6.760348 5.990363 -16.021246 0 CFG=2
M  V30 20 C 5.009037 7.611687 -16.752103 0
M  V30 21 N 7.208628 4.696712 -13.865771 0
M  V30 22 N 7.151800 5.830344 -17.425786 0
M  V30 23 N 8.838264 5.990226 -8.971229 0 CHG=1
M  V30 24 C 6.861065 5.869039 -13.040080 0
M  V30 25 C 7.580204 3.473747 -13.129439 0
M  V30 26 C 12.962129 5.998465 -1.585016 0
M  V30 27 H 7.616448 6.950380 -11.337931 0
M  V30 28 H 8.843588 6.498503 -12.484133 0
M  V30 29 H 8.463010 8.163890 -7.406718 0
M  V30 30 H 8.898920 6.745210 -6.494686 0
M  V30 31 H 7.376468 4.549633 -10.632664 0
M  V30 32 H 10.349334 7.010154 -4.761935 0
M  V30 33 H 11.775411 6.924088 -5.745644 0
M  V30 34 H 5.375377 8.149485 -18.818414 0
M  V30 35 H 4.452744 6.682339 -18.613848 0
M  V30 36 H 12.424382 9.257883 -4.870239 0
M  V30 37 H 11.028385 9.225596 -3.844345 0
M  V30 38 H 11.036489 8.860635 -7.080752 0
M  V30 39 H 9.775467 9.190190 -5.935239 0
M  V30 40 H 4.623501 5.590226 -16.232930 0
M  V30 41 H 4.983245 6.591715 -14.855866 0
M  V30 42 H 9.063747 8.326386 -9.422827 0
M  V30 43 H 11.104209 7.054522 -1.909437 0
M  V30 44 H 11.594054 5.990480 -3.209347 0
M  V30 45 H 13.568251 7.589870 -3.620344 0
M  V30 46 H 12.890242 8.670239 -2.467848 0
M  V30 47 H 10.175375 5.718980 -10.591429 0
M  V30 48 H 9.775420 4.266462 -9.695355 0
M  V30 49 H 9.608490 4.066706 -12.662734 0
M  V30 50 H 8.975429 2.862166 -11.585057 0
M  V30 51 H 7.375408 6.790324 -15.616272 0
M  V30 52 H 5.653853 8.433311 -16.434089 0
M  V30 53 H 3.980772 7.957177 -16.641048 0
M  V30 54 H 8.518997 5.385341 -8.228614 0
M  V30 55 H 5.911332 5.665611 -12.544089 0
M  V30 56 H 6.725316 6.798873 -13.584540 0
M  V30 57 H 6.695869 3.102892 -12.609791 0
M  V30 58 H 7.908558 2.659675 -13.776751 0
M  V30 59 H 12.492782 5.190227 -1.041226 0
M  V30 60 H 13.775404 5.571645 -2.165895 0
M  V30 61 H 13.375411 6.658636 -0.823340 0
M  V30 62 H 8.048757 6.573557 -9.262580 0
M  V30 END ATOM
M  V30 BEGIN BOND
M  V30 1 1 3 1
M  V30 2 2 5 4
M  V30 3 1 9 7
M  V30 4 1 10 2
M  V30 5 1 10 7
M  V30 6 1 11 2
M  V30 7 1 13 11
M  V30 8 1 15 9
M  V30 9 1 15 14
M  V30 10 1 16 3
M  V30 11 1 17 6
M  V30 12 1 17 8
M  V30 13 1 18 3
M  V30 14 1 19 5
M  V30 15 1 19 12
M  V30 16 1 20 8
M  V30 17 1 20 12
M  V30 18 1 21 5
M  V30 19 2 22 17
M  V30 20 1 22 19
M  V30 21 1 23 11
M  V30 22 1 23 16
M  V30 23 1 24 1
M  V30 24 1 24 21
M  V30 25 1 25 18
M  V30 26 1 25 21
M  V30 27 1 26 14
M  V30 28 1 27 1
M  V30 29 1 28 1
M  V30 30 1 29 2
M  V30 31 1 30 2
M  V30 32 1 31 3
M  V30 33 1 32 7
M  V30 34 1 33 7
M  V30 35 1 34 8
M  V30 36 1 35 8
M  V30 37 1 36 9
M  V30 38 1 37 9
M  V30 39 1 38 10
M  V30 40 1 39 10
M  V30 41 1 40 12
M  V30 42 1 41 12
M  V30 43 1 42 13
M  V30 44 1 43 14
M  V30 45 1 44 14
M  V30 46 1 45 15
M  V30 47 1 46 15
M  V30 48 1 47 16
M  V30 49 1 48 16
M  V30 50 1 49 18
M  V30 51 1 50 18
M  V30 52 1 19 51 CFG=1
M  V30 53 1 52 20
M  V30 54 1 53 20
M  V30 55 1 54 23
M  V30 56 1 55 24
M  V30 57 1 56 24
M  V30 58 1 57 25
M  V30 59 1 58 25
M  V30 60 1 59 26
M  V30 61 1 60 26
M  V30 62 1 61 26
M  V30 63 1 62 23
M  V30 END BOND
M  V30 END CTAB
M  END
>  <i_epik_Tot_Q>  (1) 
1

>  <i_epik_Tot_abs_Q>  (1) 
1

>  <i_i_glide_confnum>  (1) 
1064

>  <i_i_glide_lignum>  (1) 
50

>  <i_i_glide_posenum>  (1) 
213

>  <i_i_glide_rotatable_bonds>  (1) 
12

>  <i_lp_mmshare_version>  (1) 
72125

>  <i_m_source_file_index>  (1) 
30

>  <i_f3d_flags>  (1) 
0

>  <num_sample>  (1) 
100

>  <b_lp_Chiralities_Consistent>  (1) 
1

>  <r_epik_Charging_Adjusted_Penalty>  (1) 
1.4390288097636857e-06

>  <r_epik_Ionization_Penalty>  (1) 
0.023192080520664203

>  <r_epik_Ionization_Penalty_Charging>  (1) 
4.1514280511365775e-07

>  <r_epik_Ionization_Penalty_Neutral>  (1) 
0.023191665377859088

>  <r_epik_State_Penalty>  (1) 
1.023886004650028e-06

>  <r_glide_ring_energy>  (1) 
0

>  <r_i_docking_score>  (1) 
-7.1200286397974821

>  <r_i_glide_ecoul>  (1) 
-8.821172142312923

>  <r_i_glide_eff_state_penalty>  (1) 
1.023886004650028e-06

>  <r_i_glide_einternal>  (1) 
11.702177706558011

>  <r_i_glide_emodel>  (1) 
-58.52033572978381

>  <r_i_glide_emodel_strain>  (1) 
1.6630270371209974

>  <r_i_glide_energy>  (1) 
-40.072490490282867

>  <r_i_glide_erotb>  (1) 
1.3985499384426772

>  <r_i_glide_esite>  (1) 
-0.2655051699081204

>  <r_i_glide_evdw>  (1) 
-31.251318347969942

>  <r_i_glide_gscore>  (1) 
-7.1200296636834866

>  <r_i_glide_gscore_strain>  (1) 
0

>  <r_i_glide_hbond>  (1) 
-0.30744521627314469

>  <r_i_glide_ligand_efficiency>  (1) 
-0.27384725537682625

>  <r_i_glide_ligand_efficiency_ln>  (1) 
-1.6721153633369226

>  <r_i_glide_ligand_efficiency_sa>  (1) 
-0.81127141739799702

>  <r_i_glide_lipo>  (1) 
-2.6546736890979874

>  <r_i_glide_metal>  (1) 
-0

>  <r_i_glide_rewards>  (1) 
-2.405213788101475

>  <r_lp_Energy>  (1) 
24.237140999999998

>  <s_epik_Chemistry_Notes>  (1) 
This compound has an imine and may undergo hydrolysis. This compound has a N-S or N-O group and may undergo hydrolysis at high or low pH.

>  <s_epik_cmdline>  (1) 
J2VwaWtfcHl0aG9uJywgJy1waHQnLCAnMS4wJywgJy1waCcsICc3LjQnLCAnLXRuJywgJzgnLCAnLW1hJywgJzUwMCcsICctaW1hZScsICc8aW5maWxlLm1hZT4nLCAnLW9tYWUnLCAnPG91dGZpbGUubWFlPic=

>  <s_epik_input>  (1) 
RkMxPU5bQ0BASF0oW0NIMl1bQ0gyXVtDSDJdMSlDKD1PKU4oW0NIMl1bQ0gyXTIpW0NIMl1bQ0gyXVtDSF0yW0NIMl1bTkhdTihbT0hdKVtDSDJdW0NIMl1bQ0gyXVtDSDJdW0NIMl1bQ0gyXVtDSDNd

>  <s_glide_docking_method>  (1) 
confgen

>  <s_i_glide_gridfile>  (1) 
gpcr_drd2_6luq_protein_autoprepared_prepared

>  <s_lp_Force_Field>  (1) 
S-OPLS

>  <s_lp_Variant>  (1) 
DiffSBDD_29-1

>  <s_m_source_file>  (1) 
generated_generic_title2_ligand_DiffSBDD_2026-06-23_prepared.sdf

>  <GenAI_Model>  (1) 
DiffSBDD

>  <Protein>  (1) 
generic_title2

$$$$
DiffSBDD_83
     RDKit          3D

  0  0  0  0  0  0  0  0  0  0999 V3000
M  V30 BEGIN CTAB
M  V30 COUNTS 45 47 0 0 1
M  V30 BEGIN ATOM
M  V30 1 C 7.352298 3.715288 -13.184567 0
M  V30 2 C 11.775483 7.190017 -3.363411 0
M  V30 3 C 11.000492 7.268360 -5.674114 0
M  V30 4 C 11.534971 8.546480 -8.188611 0
M  V30 5 F 12.836416 9.111060 -2.414273 0
M  V30 6 C 11.151450 6.573008 -4.462265 0
M  V30 7 C 12.093870 9.213490 -4.685474 0
M  V30 8 C 7.682019 5.806799 -12.259149 0 CFG=1
M  V30 9 C 12.241747 8.513185 -3.472765 0
M  V30 10 N 6.959784 4.437963 -14.132930 0
M  V30 11 N 8.975408 7.355656 -10.785023 0 CFG=2 CHG=1
M  V30 12 C 7.900711 4.317699 -11.937249 0 CFG=2
M  V30 13 C 11.482809 8.592474 -5.792055 0
M  V30 14 C 9.346059 3.865044 -11.678388 0
M  V30 15 C 8.815287 8.190835 -11.968772 0
M  V30 16 O 11.375426 9.278646 -6.977202 0
M  V30 17 C 10.177090 8.330229 -8.866736 0
M  V30 18 F 11.919955 6.514071 -2.198742 0
M  V30 19 C 5.829876 6.574325 -13.881781 0
M  V30 20 C 10.268974 7.396489 -10.076754 0
M  V30 21 C 8.910562 6.694162 -12.076365 0 CFG=2
M  V30 22 C 7.154700 5.815439 -13.727013 0 CFG=1
M  V30 23 H 7.315626 2.623031 -13.217116 0
M  V30 24 H 10.523564 6.783934 -6.511682 0
M  V30 25 H 12.063986 7.603616 -8.038282 0
M  V30 26 H 12.173684 9.134402 -8.848960 0
M  V30 27 H 10.786116 5.570420 -4.374816 0
M  V30 28 H 12.459019 10.223647 -4.771832 0
M  V30 29 H 6.889554 6.176732 -11.603860 0
M  V30 30 H 9.375460 2.790228 -11.544052 0
M  V30 31 H 10.012727 4.093738 -12.509992 0
M  V30 32 H 9.752167 4.313599 -10.772599 0
M  V30 33 H 9.694373 8.790210 -12.175117 0
M  V30 34 H 7.846376 8.686266 -11.936490 0
M  V30 35 H 9.779745 9.291476 -9.185050 0
M  V30 36 H 9.453642 7.929794 -8.155409 0
M  V30 37 H 5.916773 7.590224 -13.505620 0
M  V30 38 H 5.526353 6.628474 -14.927761 0
M  V30 39 H 5.027638 6.087403 -13.326843 0
M  V30 40 H 10.504268 6.390716 -9.728424 0
M  V30 41 H 11.077952 7.698931 -10.743669 0
M  V30 42 H 9.869613 6.324152 -12.432015 0
M  V30 43 H 7.897432 6.270772 -14.385214 0
M  V30 44 H 8.110210 7.391154 -10.219975 0
M  V30 45 H 7.268842 4.021790 -11.098909 0
M  V30 END ATOM
M  V30 BEGIN BOND
M  V30 1 1 6 2
M  V30 2 2 6 3
M  V30 3 2 9 2
M  V30 4 1 9 5
M  V30 5 1 9 7
M  V30 6 2 10 1
M  V30 7 1 12 1
M  V30 8 1 12 8
M  V30 9 1 13 3
M  V30 10 2 13 7
M  V30 11 1 14 12
M  V30 12 1 15 11
M  V30 13 1 16 4
M  V30 14 1 16 13
M  V30 15 1 17 4
M  V30 16 1 18 2
M  V30 17 1 20 11
M  V30 18 1 20 17
M  V30 19 1 21 8
M  V30 20 1 21 11
M  V30 21 1 21 15
M  V30 22 1 22 8
M  V30 23 1 22 10
M  V30 24 1 22 19
M  V30 25 1 23 1
M  V30 26 1 24 3
M  V30 27 1 25 4
M  V30 28 1 26 4
M  V30 29 1 27 6
M  V30 30 1 28 7
M  V30 31 1 8 29 CFG=1
M  V30 32 1 30 14
M  V30 33 1 31 14
M  V30 34 1 32 14
M  V30 35 1 33 15
M  V30 36 1 34 15
M  V30 37 1 35 17
M  V30 38 1 36 17
M  V30 39 1 37 19
M  V30 40 1 38 19
M  V30 41 1 39 19
M  V30 42 1 40 20
M  V30 43 1 41 20
M  V30 44 1 21 42 CFG=3
M  V30 45 1 22 43 CFG=3
M  V30 46 1 11 44 CFG=1
M  V30 47 1 12 45 CFG=1
M  V30 END BOND
M  V30 END CTAB
M  END
>  <i_epik_Tot_Q>  (1) 
1

>  <i_epik_Tot_abs_Q>  (1) 
1

>  <i_i_glide_confnum>  (1) 
52

>  <i_i_glide_lignum>  (1) 
148

>  <i_i_glide_posenum>  (1) 
49

>  <i_i_glide_rotatable_bonds>  (1) 
6

>  <i_lp_mmshare_version>  (1) 
72125

>  <i_m_source_file_index>  (1) 
84

>  <i_f3d_flags>  (1) 
0

>  <num_sample>  (1) 
100

>  <b_lp_Chiralities_Consistent>  (1) 
1

>  <r_epik_Charging_Adjusted_Penalty>  (1) 
0.43105765877043739

>  <r_epik_Ionization_Penalty>  (1) 
0.36079924242796862

>  <r_epik_Ionization_Penalty_Charging>  (1) 
0.10499320228047652

>  <r_epik_Ionization_Penalty_Neutral>  (1) 
0.25580604014749209

>  <r_epik_State_Penalty>  (1) 
0.32606445648996085

>  <r_glide_ring_energy>  (1) 
0

>  <r_i_docking_score>  (1) 
-7.1106430152981464

>  <r_i_glide_ecoul>  (1) 
-8.0343449688806921

>  <r_i_glide_eff_state_penalty>  (1) 
0.32606445648996085

>  <r_i_glide_einternal>  (1) 
2.8358529497321729

>  <r_i_glide_emodel>  (1) 
-59.520820673560934

>  <r_i_glide_emodel_strain>  (1) 
0.41317523262434008

>  <r_i_glide_energy>  (1) 
-36.711752306069755

>  <r_i_glide_erotb>  (1) 
0.96718860002963114

>  <r_i_glide_esite>  (1) 
-0.10000000000000001

>  <r_i_glide_evdw>  (1) 
-28.677407337189059

>  <r_i_glide_gscore>  (1) 
-7.4367074717881074

>  <r_i_glide_gscore_strain>  (1) 
0

>  <r_i_glide_hbond>  (1) 
-0.18435797711795959

>  <r_i_glide_ligand_efficiency>  (1) 
-0.32321104614991575

>  <r_i_glide_ligand_efficiency_ln>  (1) 
-1.7381005199447528

>  <r_i_glide_ligand_efficiency_sa>  (1) 
-0.9056500634143374

>  <r_i_glide_lipo>  (1) 
-2.5133089805469861

>  <r_i_glide_metal>  (1) 
-0

>  <r_i_glide_rewards>  (1) 
-2.9672070019612367

>  <r_lp_Energy>  (1) 
24.635403999999998

>  <r_lp_tautomer_probability>  (1) 
0.99998600000000004

>  <s_epik_Chemistry_Notes>  (1) 
This compound has an imine and may undergo hydrolysis.

>  <s_epik_cmdline>  (1) 
J2VwaWtfcHl0aG9uJywgJy1waHQnLCAnMS4wJywgJy1waCcsICc3LjQnLCAnLXRuJywgJzgnLCAnLW1hJywgJzUwMCcsICctaW1hZScsICc8aW5maWxlLm1hZT4nLCAnLW9tYWUnLCAnPG91dGZpbGUubWFlPic=

>  <s_epik_input>  (1) 
W0NIM11bQ0BASF0xTj1bQ0hdW0NAQEhdKFtDSDNdKVtDQEhdMVtDQEhdMltDSDJdTjJbQ0gyXVtDSDJdW0NIMl1PYyhbY0hdYzNGKVtjSF1bY0hdYzNG

>  <s_glide_docking_method>  (1) 
confgen

>  <s_i_glide_gridfile>  (1) 
gpcr_drd2_6luq_protein_autoprepared_prepared

>  <s_lp_Force_Field>  (1) 
S-OPLS

>  <s_lp_Variant>  (1) 
DiffSBDD_83-2

>  <s_m_source_file>  (1) 
generated_generic_title2_ligand_DiffSBDD_2026-06-23_prepared.sdf

>  <GenAI_Model>  (1) 
DiffSBDD

>  <Protein>  (1) 
generic_title2

$$$$
DiffSBDD_44
     RDKit          3D

  0  0  0  0  0  0  0  0  0  0999 V3000
M  V30 BEGIN CTAB
M  V30 COUNTS 46 48 0 0 1
M  V30 BEGIN ATOM
M  V30 1 C 5.704711 4.164539 -11.994543 0 CFG=2
M  V30 2 C 10.428952 6.516348 -7.182127 0
M  V30 3 C 11.358863 7.715103 -5.184192 0
M  V30 4 C 6.415081 3.708163 -13.192590 0 CFG=1
M  V30 5 O 10.175398 7.545746 -9.309779 0
M  V30 6 C 12.213934 7.901270 -2.493894 0
M  V30 7 C 11.375409 6.566930 -4.353726 0
M  V30 8 C 8.264163 4.619156 -11.429771 0
M  V30 9 O 11.763051 10.077395 -5.431419 0
M  V30 10 O 6.575444 -0.138391 -13.326662 0
M  V30 11 C 10.911011 7.632496 -6.595823 0
M  V30 12 C 11.775471 8.958059 -4.649118 0
M  V30 13 O 8.175390 2.072511 -13.213883 0
M  V30 14 C 5.952025 1.125277 -13.185208 0
M  V30 15 C 9.385296 5.284036 -9.185826 0
M  V30 16 N 6.228092 7.168216 -11.985028 0 CHG=1
M  V30 17 C 8.294541 5.580280 -10.231094 0
M  V30 18 O 4.975359 3.793457 -13.185023 0
M  V30 19 C 7.033496 4.819819 -12.321875 0 CFG=2
M  V30 20 C 6.964468 2.291100 -13.196832 0
M  V30 21 C 11.800137 6.664474 -3.014346 0
M  V30 22 C 10.020856 6.552621 -8.594991 0
M  V30 23 C 6.967077 6.243532 -12.876616 0
M  V30 24 C 12.201947 9.045309 -3.308011 0
M  V30 25 H 5.657409 3.463657 -11.162673 0
M  V30 26 H 10.329407 5.590227 -6.643112 0
M  V30 27 H 12.540323 7.974062 -1.467285 0
M  V30 28 H 11.061946 5.611815 -4.738696 0
M  V30 29 H 9.163281 4.752642 -12.033092 0
M  V30 30 H 8.303718 3.591218 -11.078130 0
M  V30 31 H 11.973159 10.872075 -4.968180 0
M  V30 32 H 5.923903 -0.835942 -13.317652 0
M  V30 33 H 10.983320 8.540588 -7.177175 0
M  V30 34 H 5.224687 1.253519 -13.985024 0
M  V30 35 H 5.411824 1.125511 -12.242486 0
M  V30 36 H 10.174302 4.692641 -9.642554 0
M  V30 37 H 8.969017 4.672820 -8.384696 0
M  V30 38 H 6.225725 8.097060 -12.376811 0
M  V30 39 H 6.645093 7.225744 -11.050271 0
M  V30 40 H 8.426265 6.580791 -10.635860 0
M  V30 41 H 7.329087 5.578717 -9.724151 0
M  V30 42 H 11.807914 5.784932 -2.386345 0
M  V30 43 H 7.973073 6.625383 -13.056149 0
M  V30 44 H 6.462606 6.231014 -13.844001 0
M  V30 45 H 12.520009 9.990232 -2.902349 0
M  V30 46 H 5.274753 6.853973 -11.877960 0
M  V30 END ATOM
M  V30 BEGIN BOND
M  V30 1 1 4 1
M  V30 2 2 7 3
M  V30 3 2 11 2
M  V30 4 1 11 3
M  V30 5 1 12 3
M  V30 6 1 12 9
M  V30 7 1 14 10
M  V30 8 1 17 8
M  V30 9 1 17 15
M  V30 10 1 18 1
M  V30 11 1 18 4
M  V30 12 1 19 1
M  V30 13 1 19 4
M  V30 14 1 19 8 CFG=1
M  V30 15 1 4 20 CFG=1
M  V30 16 2 20 13
M  V30 17 1 20 14
M  V30 18 2 21 6
M  V30 19 1 21 7
M  V30 20 1 22 2
M  V30 21 2 22 5
M  V30 22 1 22 15
M  V30 23 1 23 16
M  V30 24 1 23 19
M  V30 25 1 24 6
M  V30 26 2 24 12
M  V30 27 1 1 25 CFG=1
M  V30 28 1 26 2
M  V30 29 1 27 6
M  V30 30 1 28 7
M  V30 31 1 29 8
M  V30 32 1 30 8
M  V30 33 1 31 9
M  V30 34 1 32 10
M  V30 35 1 33 11
M  V30 36 1 34 14
M  V30 37 1 35 14
M  V30 38 1 36 15
M  V30 39 1 37 15
M  V30 40 1 38 16
M  V30 41 1 39 16
M  V30 42 1 40 17
M  V30 43 1 41 17
M  V30 44 1 42 21
M  V30 45 1 43 23
M  V30 46 1 44 23
M  V30 47 1 45 24
M  V30 48 1 46 16
M  V30 END BOND
M  V30 END CTAB
M  END
>  <i_epik_Tot_Q>  (1) 
1

>  <i_epik_Tot_abs_Q>  (1) 
1

>  <i_i_glide_confnum>  (1) 
653

>  <i_i_glide_lignum>  (1) 
71

>  <i_i_glide_posenum>  (1) 
219

>  <i_i_glide_rotatable_bonds>  (1) 
11

>  <i_lp_mmshare_version>  (1) 
72125

>  <i_m_source_file_index>  (1) 
45

>  <i_f3d_flags>  (1) 
0

>  <num_sample>  (1) 
100

>  <b_lp_Chiralities_Consistent>  (1) 
1

>  <r_epik_Charging_Adjusted_Penalty>  (1) 
0.0039975134785533318

>  <r_epik_Ionization_Penalty>  (1) 
0.0083805373542956835

>  <r_epik_Ionization_Penalty_Charging>  (1) 
0.0039975134785533318

>  <r_epik_Ionization_Penalty_Neutral>  (1) 
0.0043830238757423508

>  <r_epik_State_Penalty>  (1) 
-0

>  <r_glide_ring_energy>  (1) 
0

>  <r_i_docking_score>  (1) 
-7.0706660595062871

>  <r_i_glide_ecoul>  (1) 
-7.4129863543393224

>  <r_i_glide_eff_state_penalty>  (1) 
-0

>  <r_i_glide_einternal>  (1) 
4.8130497338147649

>  <r_i_glide_emodel>  (1) 
-66.01022359526138

>  <r_i_glide_emodel_strain>  (1) 
0.18996696481199393

>  <r_i_glide_energy>  (1) 
-42.657507506449782

>  <r_i_glide_erotb>  (1) 
1.3638172886518747

>  <r_i_glide_esite>  (1) 
-0.15692005490995797

>  <r_i_glide_evdw>  (1) 
-35.244521152110458

>  <r_i_glide_gscore>  (1) 
-7.0706660595062871

>  <r_i_glide_gscore_strain>  (1) 
0

>  <r_i_glide_hbond>  (1) 
-0.35999999999999999

>  <r_i_glide_ligand_efficiency>  (1) 
-0.29461108581276196

>  <r_i_glide_ligand_efficiency_ln>  (1) 
-1.6923348397637681

>  <r_i_glide_ligand_efficiency_sa>  (1) 
-0.8498054238425099

>  <r_i_glide_lipo>  (1) 
-2.8678699188815147

>  <r_i_glide_metal>  (1) 
-0

>  <r_i_glide_rewards>  (1) 
-2.1755193636102672

>  <r_lp_Energy>  (1) 
24.892022999999998

>  <r_lp_tautomer_probability>  (1) 
1

>  <s_epik_cmdline>  (1) 
J2VwaWtfcHl0aG9uJywgJy1waHQnLCAnMS4wJywgJy1waCcsICc3LjQnLCAnLXRuJywgJzgnLCAnLW1hJywgJzUwMCcsICctaW1hZScsICc8aW5maWxlLm1hZT4nLCAnLW9tYWUnLCAnPG91dGZpbGUubWFlPic=

>  <s_epik_input>  (1) 
W09IXVtDSDJdQyg9TylbQ0BdMTJbQ0BIXShPMSlbQ0BAXTIoW0NIMl1bTkgyXSlbQ0gyXVtDSDJdW0NIMl1DKD1PKS9bQ0hdPVtDSF0vYzNbY0hdW2NIXVtjSF1bY0hdYzNbT0hd

>  <s_glide_docking_method>  (1) 
confgen

>  <s_i_glide_gridfile>  (1) 
gpcr_drd2_6luq_protein_autoprepared_prepared

>  <s_lp_Force_Field>  (1) 
S-OPLS

>  <s_lp_Variant>  (1) 
DiffSBDD_44-1

>  <s_m_source_file>  (1) 
generated_generic_title2_ligand_DiffSBDD_2026-06-23_prepared.sdf

>  <GenAI_Model>  (1) 
DiffSBDD

>  <Protein>  (1) 
generic_title2

$$$$
DiffSBDD_57
     RDKit          3D

  0  0  0  0  0  0  0  0  0  0999 V3000
M  V30 BEGIN CTAB
M  V30 COUNTS 63 67 0 0 1
M  V30 BEGIN ATOM
M  V30 1 C 6.159031 6.740504 -16.812212 0
M  V30 2 C 8.433687 6.446231 -12.635273 0
M  V30 3 C 11.375369 7.010914 -6.292381 0
M  V30 4 N 12.975388 9.075343 -2.322624 0
M  V30 5 C 9.690961 5.894871 -11.932956 0 CFG=2
M  V30 6 C 8.887963 3.567511 -12.406278 0
M  V30 7 C 6.702360 5.835437 -14.525479 0 CFG=2
M  V30 8 C 9.344559 4.510261 -11.326610 0
M  V30 9 C 11.382658 7.494357 -10.906711 0
M  V30 10 C 7.217909 5.927329 -17.632596 0
M  V30 11 C 11.717203 6.546009 -2.539598 0
M  V30 12 F 12.968988 6.293720 -2.156447 0
M  V30 13 C 11.820744 8.283361 -9.825892 0
M  V30 14 F 11.042330 7.190153 -1.585670 0
M  V30 15 C 11.023299 8.383759 -8.670513 0
M  V30 16 O 11.461863 9.089791 -7.588414 0
M  V30 17 C 11.775873 8.606260 -4.092730 0
M  V30 18 C 7.907158 4.033478 -15.906493 0
M  V30 19 C 7.448234 4.421274 -17.327395 0
M  V30 20 C 11.433492 6.402658 -5.044346 0
M  V30 21 C 5.378291 5.190190 -14.159196 0
M  V30 22 C 9.786521 7.723834 -8.613157 0
M  V30 23 C 9.375425 6.921909 -9.668972 0
M  V30 24 N 11.695042 9.212990 -5.299437 0
M  V30 25 C 6.465638 7.095837 -15.320766 0
M  V30 26 N 11.990142 9.418357 -2.978669 0
M  V30 27 N 7.623298 4.092443 -12.931346 0 CHG=1
M  V30 28 C 8.029876 5.244925 -15.016418 0 CFG=2
M  V30 29 C 11.647069 7.194180 -3.921186 0
M  V30 30 C 10.158335 6.799223 -10.815345 0
M  V30 31 C 11.506327 8.426027 -6.375055 0
M  V30 32 C 7.802342 5.419428 -13.561743 0 CFG=2
M  V30 33 H 5.982701 7.683009 -17.332248 0
M  V30 34 H 5.206148 6.213219 -16.873604 0
M  V30 35 H 7.680072 6.714404 -11.894348 0
M  V30 36 H 8.652061 7.360776 -13.183411 0
M  V30 37 H 11.237694 6.406422 -7.173185 0
M  V30 38 H 13.187098 9.791905 -1.592282 0
M  V30 39 H 10.490990 5.783073 -12.667237 0
M  V30 40 H 9.644890 3.546833 -13.184708 0
M  V30 41 H 8.760648 2.552316 -12.031144 0
M  V30 42 H 10.175419 4.083430 -10.791711 0
M  V30 43 H 8.543927 4.562460 -10.588296 0
M  V30 44 H 11.995389 7.400421 -11.789912 0
M  V30 45 H 8.196378 6.390197 -17.596356 0
M  V30 46 H 6.923845 5.995006 -18.681862 0
M  V30 47 H 11.217199 5.590267 -2.592029 0
M  V30 48 H 12.771830 8.795471 -9.876724 0
M  V30 49 H 8.880355 3.543394 -15.956206 0
M  V30 50 H 7.215910 3.305497 -15.483407 0
M  V30 51 H 8.204898 4.064181 -18.026142 0
M  V30 52 H 6.575410 3.840258 -17.590737 0
M  V30 53 H 11.333452 5.344603 -4.950067 0
M  V30 54 H 4.575497 5.590316 -14.772447 0
M  V30 55 H 5.399589 4.112134 -14.297171 0
M  V30 56 H 5.126674 5.406285 -13.120120 0
M  V30 57 H 9.169377 7.802899 -7.729245 0
M  V30 58 H 8.441139 6.390069 -9.595311 0
M  V30 59 H 7.324416 7.755070 -15.203313 0
M  V30 60 H 5.632953 7.651327 -14.886701 0
M  V30 61 H 7.260316 3.454170 -13.621178 0
M  V30 62 H 8.792352 5.931855 -15.382779 0
M  V30 63 H 6.960069 4.176449 -12.174595 0
M  V30 END ATOM
M  V30 BEGIN BOND
M  V30 1 1 5 2
M  V30 2 1 8 5
M  V30 3 1 8 6
M  V30 4 1 10 1
M  V30 5 1 12 11
M  V30 6 2 13 9
M  V30 7 1 14 11
M  V30 8 1 15 13
M  V30 9 1 16 15
M  V30 10 1 19 10
M  V30 11 1 19 18
M  V30 12 2 20 3
M  V30 13 1 7 21 CFG=1
M  V30 14 2 22 15
M  V30 15 1 23 22
M  V30 16 1 24 17
M  V30 17 1 25 1
M  V30 18 1 25 7
M  V30 19 2 26 4
M  V30 20 1 26 17
M  V30 21 1 27 6
M  V30 22 1 28 7
M  V30 23 1 28 18
M  V30 24 1 29 11
M  V30 25 2 29 17
M  V30 26 1 29 20
M  V30 27 1 30 5
M  V30 28 1 30 9
M  V30 29 2 30 23
M  V30 30 1 31 3
M  V30 31 1 31 16
M  V30 32 2 31 24
M  V30 33 1 32 2 CFG=1
M  V30 34 1 32 7
M  V30 35 1 32 27
M  V30 36 1 32 28
M  V30 37 1 33 1
M  V30 38 1 34 1
M  V30 39 1 35 2
M  V30 40 1 36 2
M  V30 41 1 37 3
M  V30 42 1 38 4
M  V30 43 1 5 39 CFG=3
M  V30 44 1 40 6
M  V30 45 1 41 6
M  V30 46 1 42 8
M  V30 47 1 43 8
M  V30 48 1 44 9
M  V30 49 1 45 10
M  V30 50 1 46 10
M  V30 51 1 47 11
M  V30 52 1 48 13
M  V30 53 1 49 18
M  V30 54 1 50 18
M  V30 55 1 51 19
M  V30 56 1 52 19
M  V30 57 1 53 20
M  V30 58 1 54 21
M  V30 59 1 55 21
M  V30 60 1 56 21
M  V30 61 1 57 22
M  V30 62 1 58 23
M  V30 63 1 59 25
M  V30 64 1 60 25
M  V30 65 1 61 27
M  V30 66 1 28 62 CFG=3
M  V30 67 1 63 27
M  V30 END BOND
M  V30 END CTAB
M  END
>  <i_epik_Tot_Q>  (1) 
1

>  <i_epik_Tot_abs_Q>  (1) 
1

>  <i_i_glide_confnum>  (1) 
9

>  <i_i_glide_lignum>  (1) 
91

>  <i_i_glide_posenum>  (1) 
315

>  <i_i_glide_rotatable_bonds>  (1) 
5

>  <i_lp_mmshare_version>  (1) 
72125

>  <i_m_source_file_index>  (1) 
58

>  <i_f3d_flags>  (1) 
0

>  <num_sample>  (1) 
100

>  <b_lp_Chiralities_Consistent>  (1) 
1

>  <r_epik_Charging_Adjusted_Penalty>  (1) 
0.05439887129790702

>  <r_epik_Ionization_Penalty>  (1) 
0.027199436685871044

>  <r_epik_Ionization_Penalty_Charging>  (1) 
0.02719943564895351

>  <r_epik_Ionization_Penalty_Neutral>  (1) 
1.0369175350527502e-09

>  <r_epik_State_Penalty>  (1) 
0.02719943564895351

>  <r_glide_ring_energy>  (1) 
0

>  <r_i_docking_score>  (1) 
-7.0544030573761161

>  <r_i_glide_ecoul>  (1) 
-8.6193082523410993

>  <r_i_glide_eff_state_penalty>  (1) 
0.02719943564895351

>  <r_i_glide_einternal>  (1) 
5.5608573599333475

>  <r_i_glide_emodel>  (1) 
-32.418244593112917

>  <r_i_glide_emodel_strain>  (1) 
5.4182881535549825

>  <r_i_glide_energy>  (1) 
-31.630070593477338

>  <r_i_glide_erotb>  (1) 
0.3073767375315366

>  <r_i_glide_esite>  (1) 
0

>  <r_i_glide_evdw>  (1) 
-23.010762341136239

>  <r_i_glide_gscore>  (1) 
-7.0816024930250698

>  <r_i_glide_gscore_strain>  (1) 
0.35457203838874563

>  <r_i_glide_hbond>  (1) 
-0.25450128136690803

>  <r_i_glide_ligand_efficiency>  (1) 
-0.22045009554300363

>  <r_i_glide_ligand_efficiency_ln>  (1) 
-1.5796731403111999

>  <r_i_glide_ligand_efficiency_sa>  (1) 
-0.69988542714290813

>  <r_i_glide_lipo>  (1) 
-3.6248364197857681

>  <r_i_glide_metal>  (1) 
-0

>  <r_i_glide_rewards>  (1) 
-1.420779212884699

>  <r_lp_Energy>  (1) 
78.297426000000002

>  <r_lp_tautomer_probability>  (1) 
1

>  <s_epik_cmdline>  (1) 
J2VwaWtfcHl0aG9uJywgJy1waHQnLCAnMS4wJywgJy1waCcsICc3LjQnLCAnLXRuJywgJzgnLCAnLW1hJywgJzUwMCcsICctaW1hZScsICc8aW5maWxlLm1hZT4nLCAnLW9tYWUnLCAnPG91dGZpbGUubWFlPic=

>  <s_epik_input>  (1) 
W0NIMl0xW0NIMl1bQ0gyXVtDSDJdW0NIMl1bQ0BIXTJbQ0BAXTEoW0NIM10pW0NAXTIzW0NIMl1bQ0BIXShbQ0gyXVtDSDJdW05IXTMpYyhbY0hdW2NIXTQpW2NIXVtjSF1jNE9jKFtjSF1bY0hdYzVbQ0hdKEYpRiluYzVcTj1OXFtIXQ==

>  <s_glide_docking_method>  (1) 
confgen

>  <s_i_glide_gridfile>  (1) 
gpcr_drd2_6luq_protein_autoprepared_prepared

>  <s_lp_Force_Field>  (1) 
S-OPLS

>  <s_lp_Variant>  (1) 
DiffSBDD_57-1

>  <s_m_source_file>  (1) 
generated_generic_title2_ligand_DiffSBDD_2026-06-23_prepared.sdf

>  <GenAI_Model>  (1) 
DiffSBDD

>  <Protein>  (1) 
generic_title2

$$$$
DiffSBDD_52
     RDKit          3D

  0  0  0  0  0  0  0  0  0  0999 V3000
M  V30 BEGIN CTAB
M  V30 COUNTS 51 54 0 0 1
M  V30 BEGIN ATOM
M  V30 1 C 11.951640 9.352450 -4.017439 0
M  V30 2 F 12.715132 8.390531 -1.887827 0
M  V30 3 C 7.031318 6.163682 -12.239420 0 CFG=1
M  V30 4 C 6.401009 3.495952 -12.106381 0
M  V30 5 C 6.649105 4.163228 -10.749579 0 CFG=2
M  V30 6 C 11.925170 6.898461 -3.456870 0
M  V30 7 C 9.488402 6.545764 -7.198200 0
M  V30 8 C 7.246292 3.257017 -14.531796 0
M  V30 9 C 12.197120 8.164005 -3.105471 0
M  V30 10 N 6.910346 5.590219 -10.867222 0 CFG=1 CHG=1
M  V30 11 C 10.765560 7.705222 -5.585062 0 CFG=2
M  V30 12 O 7.668830 7.401344 -11.985000 0
M  V30 13 C 7.811429 4.319539 -15.468723 0
M  V30 14 O 10.619102 7.368499 -6.957731 0
M  V30 15 C 11.648912 8.958802 -5.479382 0
M  V30 16 C 7.527739 3.778896 -13.115905 0 CFG=1
M  V30 17 C 7.551266 5.624418 -14.722280 0
M  V30 18 C 9.431131 6.105200 -8.661304 0
M  V30 19 C 11.343763 6.504587 -4.798243 0
M  V30 20 C 7.977106 4.777940 -10.305615 0 CFG=1
M  V30 21 C 8.255702 5.143684 -8.857787 0
M  V30 22 C 7.824467 5.290059 -13.248709 0 CFG=1
M  V30 23 H 11.120832 9.927443 -3.606183 0
M  V30 24 H 12.832659 9.990194 -3.983637 0
M  V30 25 H 6.019801 6.356635 -12.600643 0
M  V30 26 H 5.449256 3.862070 -12.495024 0
M  V30 27 H 6.271351 2.420313 -11.984988 0
M  V30 28 H 5.886367 3.993838 -9.993079 0
M  V30 29 H 12.127226 6.095521 -2.762559 0
M  V30 30 H 8.575489 7.082784 -6.933386 0
M  V30 31 H 9.527318 5.654575 -6.575780 0
M  V30 32 H 6.175441 3.176490 -14.694552 0
M  V30 33 H 7.677925 2.271139 -14.710488 0
M  V30 34 H 9.788182 7.967400 -5.185023 0
M  V30 35 H 7.471710 7.673954 -11.085124 0
M  V30 36 H 7.352829 4.297094 -16.457571 0
M  V30 37 H 8.884999 4.173071 -15.593732 0
M  V30 38 H 12.575350 8.790316 -6.022209 0
M  V30 39 H 11.167798 9.794749 -5.988762 0
M  V30 40 H 8.435226 3.284572 -12.763382 0
M  V30 41 H 6.511019 5.918981 -14.865811 0
M  V30 42 H 8.175506 6.434720 -15.089923 0
M  V30 43 H 10.364346 5.614703 -8.935567 0
M  V30 44 H 9.323236 6.980203 -9.303073 0
M  V30 45 H 10.564578 5.771228 -4.606202 0
M  V30 46 H 12.115005 5.995807 -5.378627 0
M  V30 47 H 8.850964 4.671711 -10.942331 0
M  V30 48 H 7.375153 5.590103 -8.411057 0
M  V30 49 H 8.440815 4.238745 -8.283507 0
M  V30 50 H 8.894323 5.426929 -13.079112 0
M  V30 51 H 6.512923 6.194493 -10.151080 0
M  V30 END ATOM
M  V30 BEGIN BOND
M  V30 1 1 5 4
M  V30 2 1 9 1
M  V30 3 1 9 2
M  V30 4 2 9 6
M  V30 5 1 10 3
M  V30 6 1 10 5
M  V30 7 1 12 3
M  V30 8 1 13 8
M  V30 9 1 14 7
M  V30 10 1 14 11
M  V30 11 1 15 1
M  V30 12 1 15 11
M  V30 13 1 16 4
M  V30 14 1 16 8
M  V30 15 1 17 13
M  V30 16 1 18 7
M  V30 17 1 19 6
M  V30 18 1 19 11
M  V30 19 1 20 5
M  V30 20 1 20 10
M  V30 21 1 21 18
M  V30 22 1 21 20
M  V30 23 1 22 3
M  V30 24 1 22 16
M  V30 25 1 22 17
M  V30 26 1 23 1
M  V30 27 1 24 1
M  V30 28 1 3 25 CFG=3
M  V30 29 1 26 4
M  V30 30 1 27 4
M  V30 31 1 5 28 CFG=1
M  V30 32 1 29 6
M  V30 33 1 30 7
M  V30 34 1 31 7
M  V30 35 1 32 8
M  V30 36 1 33 8
M  V30 37 1 11 34 CFG=1
M  V30 38 1 35 12
M  V30 39 1 36 13
M  V30 40 1 37 13
M  V30 41 1 38 15
M  V30 42 1 39 15
M  V30 43 1 16 40 CFG=1
M  V30 44 1 41 17
M  V30 45 1 42 17
M  V30 46 1 43 18
M  V30 47 1 44 18
M  V30 48 1 45 19
M  V30 49 1 46 19
M  V30 50 1 20 47 CFG=3
M  V30 51 1 48 21
M  V30 52 1 49 21
M  V30 53 1 22 50 CFG=1
M  V30 54 1 10 51 CFG=1
M  V30 END BOND
M  V30 END CTAB
M  END
>  <i_epik_Tot_Q>  (1) 
1

>  <i_epik_Tot_abs_Q>  (1) 
1

>  <i_i_glide_confnum>  (1) 
121

>  <i_i_glide_lignum>  (1) 
84

>  <i_i_glide_posenum>  (1) 
353

>  <i_i_glide_rotatable_bonds>  (1) 
6

>  <i_lp_mmshare_version>  (1) 
72125

>  <i_m_source_file_index>  (1) 
53

>  <i_f3d_flags>  (1) 
0

>  <num_sample>  (1) 
100

>  <b_lp_Chiralities_Consistent>  (1) 
1

>  <r_epik_Charging_Adjusted_Penalty>  (1) 
0.54296395038273226

>  <r_epik_Ionization_Penalty>  (1) 
0.53316988730295212

>  <r_epik_Ionization_Penalty_Charging>  (1) 
0.022916544562111445

>  <r_epik_Ionization_Penalty_Neutral>  (1) 
0.51025334274084067

>  <r_epik_State_Penalty>  (1) 
0.52004740582062081

>  <r_glide_ring_energy>  (1) 
0

>  <r_i_docking_score>  (1) 
-7.0462979386191025

>  <r_i_glide_ecoul>  (1) 
-9.5649934580292619

>  <r_i_glide_eff_state_penalty>  (1) 
0.52004740582062081

>  <r_i_glide_einternal>  (1) 
1.899504464720704

>  <r_i_glide_emodel>  (1) 
-58.220351194263159

>  <r_i_glide_emodel_strain>  (1) 
0.085189404005262759

>  <r_i_glide_energy>  (1) 
-37.966574470678225

>  <r_i_glide_erotb>  (1) 
0.76914675799504084

>  <r_i_glide_esite>  (1) 
-0.15653599514395666

>  <r_i_glide_evdw>  (1) 
-28.401581012648965

>  <r_i_glide_gscore>  (1) 
-7.5663453444397231

>  <r_i_glide_gscore_strain>  (1) 
0

>  <r_i_glide_hbond>  (1) 
-0.31096855078667524

>  <r_i_glide_ligand_efficiency>  (1) 
-0.32028626993723192

>  <r_i_glide_ligand_efficiency_ln>  (1) 
-1.7223722361606959

>  <r_i_glide_ligand_efficiency_sa>  (1) 
-0.89745472543303206

>  <r_i_glide_lipo>  (1) 
-2.488577095347603

>  <r_i_glide_metal>  (1) 
-0

>  <r_i_glide_rewards>  (1) 
-2.524582391819691

>  <r_lp_Energy>  (1) 
22.961214999999999

>  <s_epik_Chemistry_Notes>  (1) 
This compound contains an acetal/aminal-like group ( X-CH(R)-Y where X, Y are N, S, or O) that may be acid/base labile, releasing an aldehyde.

>  <s_epik_cmdline>  (1) 
J2VwaWtfcHl0aG9uJywgJy1waHQnLCAnMS4wJywgJy1waCcsICc3LjQnLCAnLXRuJywgJzgnLCAnLW1hJywgJzUwMCcsICctaW1hZScsICc8aW5maWxlLm1hZT4nLCAnLW9tYWUnLCAnPG91dGZpbGUubWFlPic=

>  <s_epik_input>  (1) 
RkMxPVtDSF1bQ0gyXVtDQEBIXShbQ0gyXVtDSDJdMSlPW0NIMl1bQ0gyXVtDSDJdW0NAQEhdMk4oW0NASF0yMylbQ0BASF0oW09IXSlbQ0BIXTRbQ0BASF0oW0NIMl0zKVtDSDJdW0NIMl1bQ0gyXTQ=

>  <s_glide_docking_method>  (1) 
confgen

>  <s_i_glide_gridfile>  (1) 
gpcr_drd2_6luq_protein_autoprepared_prepared

>  <s_lp_Force_Field>  (1) 
S-OPLS

>  <s_lp_Variant>  (1) 
DiffSBDD_52-3

>  <s_m_source_file>  (1) 
generated_generic_title2_ligand_DiffSBDD_2026-06-23_prepared.sdf

>  <GenAI_Model>  (1) 
DiffSBDD

>  <Protein>  (1) 
generic_title2

$$$$
DiffSBDD_86
     RDKit          3D

  0  0  0  0  0  0  0  0  0  0999 V3000
M  V30 BEGIN CTAB
M  V30 COUNTS 114 117 0 0 1
M  V30 BEGIN ATOM
M  V30 1 C 13.824952 -0.476278 -18.261995 0
M  V30 2 C 14.693744 0.523303 -19.025501 0 CFG=1
M  V30 3 C 10.526301 8.243065 -9.512614 0
M  V30 4 C 4.533159 8.306172 -19.577652 0
M  V30 5 C 7.821805 2.785952 -19.776890 0 CFG=2
M  V30 6 C 7.680554 4.236842 -12.550413 0
M  V30 7 O 8.777900 0.800374 -18.800932 0
M  V30 8 C 7.229619 2.006773 -17.416728 0 CFG=2
M  V30 9 O 8.335740 -1.610377 -17.185019 0
M  V30 10 C 7.715110 0.614440 -17.868077 0 CFG=2
M  V30 11 C 7.356647 3.594529 -21.006050 0
M  V30 12 O 15.994428 -0.009573 -19.185227 0
M  V30 13 N 8.975407 6.756880 -10.783456 0
M  V30 14 C 12.234448 3.365461 -18.251354 0
M  V30 15 C 11.493621 0.306552 -19.153196 0 CFG=1
M  V30 16 C 7.220589 4.413401 -14.917678 0 CFG=2
M  V30 17 O 11.949502 -0.459536 -21.765831 0
M  V30 18 C 4.315829 6.505130 -17.712697 0
M  V30 19 C 8.519906 1.407276 -20.076123 0 CFG=1
M  V30 20 C 7.723070 0.349853 -20.940606 0
M  V30 21 C 11.120925 1.628539 -19.881822 0 CFG=2
M  V30 22 O 12.343866 6.790237 -13.566760 0
M  V30 23 O 6.538567 3.883287 -12.257323 0
M  V30 24 N 10.542327 5.852047 -12.385023 0 CHG=1
M  V30 25 C 9.888583 1.698650 -20.762996 0
M  V30 26 C 6.716869 2.696899 -18.701158 0
M  V30 27 C 10.870967 8.348969 -6.976536 0
M  V30 28 O 8.112974 4.510247 -13.801740 0
M  V30 29 P 12.345850 0.520084 -20.715283 0 CFG=1
M  V30 30 C 4.602362 7.773587 -16.950986 0 CFG=2
M  V30 31 C 14.135818 0.925873 -20.398473 0
M  V30 32 C 6.177057 0.273171 -20.929158 0
M  V30 33 C 5.116215 7.590051 -18.376144 0 CFG=2
M  V30 34 F 12.975398 7.990401 -14.054912 0
M  V30 35 C 5.553768 7.935147 -15.766392 0
M  V30 36 C 9.977128 2.007413 -22.075436 0
M  V30 37 C 11.738466 3.021553 -19.660059 0
M  V30 38 C 9.461467 5.733925 -11.558387 0
M  V30 39 C 12.415635 0.064508 -17.955274 0
M  V30 40 C 8.007399 4.234890 -16.244841 0 CFG=2
M  V30 41 C 8.769796 4.402923 -11.489781 0
M  V30 42 C 9.505221 8.127588 -10.660666 0
M  V30 43 C 8.235256 -0.275745 -16.734635 0
M  V30 44 C 8.334840 2.778385 -16.630131 0
M  V30 45 O 9.194142 5.006124 -16.201819 0
M  V30 46 C 6.658190 6.885190 -15.586110 0
M  V30 47 C 6.187809 5.565517 -14.957180 0
M  V30 48 C 9.864150 8.194654 -8.123676 0
M  V30 49 C 11.342338 7.047016 -12.613497 0
M  V30 50 H 14.311224 -0.716511 -17.314657 0
M  V30 51 H 13.775296 -1.416925 -18.811129 0
M  V30 52 H 14.803560 1.420691 -18.418388 0
M  V30 53 H 11.262249 7.441545 -9.577129 0
M  V30 54 H 11.079939 9.176378 -9.615582 0
M  V30 55 H 3.467113 8.487428 -19.442662 0
M  V30 56 H 5.039275 9.259088 -19.725405 0
M  V30 57 H 4.669379 7.702494 -20.474840 0
M  V30 58 H 8.588856 3.415412 -19.324519 0
M  V30 59 H 6.379798 1.875345 -16.746343 0
M  V30 60 H 8.175536 -2.194155 -16.448494 0
M  V30 61 H 6.888214 0.077307 -18.313242 0
M  V30 62 H 6.731644 3.021399 -21.686389 0
M  V30 63 H 6.786626 4.472986 -20.701009 0
M  V30 64 H 8.204919 3.968042 -21.578037 0
M  V30 65 H 15.929487 -0.935474 -19.385281 0
M  V30 66 H 8.146416 6.570572 -10.219676 0
M  V30 67 H 12.397232 4.439511 -18.163980 0
M  V30 68 H 11.509918 3.085667 -17.487903 0
M  V30 69 H 13.187066 2.894470 -18.025956 0
M  V30 70 H 10.744119 -0.477228 -19.219457 0
M  V30 71 H 6.636902 3.501235 -14.782233 0
M  V30 72 H 3.283918 6.390313 -18.033272 0
M  V30 73 H 4.865540 5.590300 -17.531583 0
M  V30 74 H 7.963250 0.451440 -21.995303 0
M  V30 75 H 8.113507 -0.638258 -20.690274 0
M  V30 76 H 6.303292 3.681786 -18.494955 0
M  V30 77 H 5.864300 2.141456 -19.085596 0
M  V30 78 H 10.363971 8.318828 -6.011638 0
M  V30 79 H 11.609187 7.546461 -6.986605 0
M  V30 80 H 11.404041 9.298320 -7.041233 0
M  V30 81 H 3.715588 8.389607 -16.822107 0
M  V30 82 H 14.330560 1.978525 -20.593239 0
M  V30 83 H 14.676596 0.389606 -21.178879 0
M  V30 84 H 5.847007 -0.477391 -21.647619 0
M  V30 85 H 5.737938 -0.026772 -19.983402 0
M  V30 86 H 5.704688 1.202458 -21.234803 0
M  V30 87 H 6.175489 7.377878 -18.490629 0
M  V30 88 H 4.975667 8.014435 -14.846432 0
M  V30 89 H 6.036044 8.900591 -15.909878 0
M  V30 90 H 10.932448 2.210109 -22.535740 0
M  V30 91 H 9.099090 2.062934 -22.699742 0
M  V30 92 H 12.516027 3.216533 -20.396246 0
M  V30 93 H 10.968688 3.759327 -19.893062 0
M  V30 94 H 12.473579 0.949297 -17.329532 0
M  V30 95 H 11.912382 -0.667528 -17.323068 0
M  V30 96 H 7.436130 4.665786 -17.059169 0
M  V30 97 H 8.323257 4.281198 -10.502052 0
M  V30 98 H 9.500314 3.602170 -11.608154 0
M  V30 99 H 9.812334 8.595088 -11.582454 0
M  V30 100 H 8.653921 8.754732 -10.390247 0
M  V30 101 H 7.543831 -0.255185 -15.890541 0
M  V30 102 H 9.201062 0.073003 -16.385156 0
M  V30 103 H 8.575330 2.235242 -15.718108 0
M  V30 104 H 9.245530 2.767956 -17.227622 0
M  V30 105 H 9.670141 4.771491 -15.420234 0
M  V30 106 H 7.436297 7.301487 -14.946252 0
M  V30 107 H 7.109529 6.718622 -16.557501 0
M  V30 108 H 5.358160 5.190185 -15.531290 0
M  V30 109 H 5.773797 5.758489 -13.967796 0
M  V30 110 H 9.109884 8.979616 -8.045225 0
M  V30 111 H 9.327636 7.252231 -8.002332 0
M  V30 112 H 10.704777 7.793178 -13.065658 0
M  V30 113 H 11.807786 7.416691 -11.702828 0
M  V30 114 H 10.832957 5.026352 -12.903656 0
M  V30 END ATOM
M  V30 BEGIN BOND
M  V30 1 1 2 1
M  V30 2 1 10 7
M  V30 3 1 10 8
M  V30 4 1 11 5
M  V30 5 1 12 2
M  V30 6 1 19 5
M  V30 7 1 19 7
M  V30 8 1 19 20 CFG=3
M  V30 9 1 21 15
M  V30 10 2 23 6
M  V30 11 1 25 19
M  V30 12 1 25 21
M  V30 13 1 26 5
M  V30 14 1 26 8
M  V30 15 1 28 6
M  V30 16 1 28 16
M  V30 17 1 29 15
M  V30 18 2 29 17
M  V30 19 1 29 21
M  V30 20 1 30 18
M  V30 21 1 31 2
M  V30 22 1 29 31 CFG=1
M  V30 23 1 32 20
M  V30 24 1 33 4
M  V30 25 1 33 18
M  V30 26 1 33 30
M  V30 27 1 34 22
M  V30 28 1 35 30
M  V30 29 2 36 25
M  V30 30 1 37 14
M  V30 31 1 21 37 CFG=1
M  V30 32 1 38 13
M  V30 33 2 38 24
M  V30 34 1 39 1
M  V30 35 1 39 15
M  V30 36 1 40 16
M  V30 37 1 41 6
M  V30 38 1 41 38
M  V30 39 1 42 3
M  V30 40 1 42 13
M  V30 41 1 43 9
M  V30 42 1 43 10
M  V30 43 1 44 8
M  V30 44 1 44 40
M  V30 45 1 45 40
M  V30 46 1 46 35
M  V30 47 1 47 16
M  V30 48 1 47 46
M  V30 49 1 48 3
M  V30 50 1 48 27
M  V30 51 1 49 22
M  V30 52 1 49 24
M  V30 53 1 50 1
M  V30 54 1 51 1
M  V30 55 1 2 52 CFG=1
M  V30 56 1 53 3
M  V30 57 1 54 3
M  V30 58 1 55 4
M  V30 59 1 56 4
M  V30 60 1 57 4
M  V30 61 1 5 58 CFG=1
M  V30 62 1 8 59 CFG=1
M  V30 63 1 60 9
M  V30 64 1 10 61 CFG=3
M  V30 65 1 62 11
M  V30 66 1 63 11
M  V30 67 1 64 11
M  V30 68 1 65 12
M  V30 69 1 66 13
M  V30 70 1 67 14
M  V30 71 1 68 14
M  V30 72 1 69 14
M  V30 73 1 15 70 CFG=3
M  V30 74 1 16 71 CFG=1
M  V30 75 1 72 18
M  V30 76 1 73 18
M  V30 77 1 74 20
M  V30 78 1 75 20
M  V30 79 1 76 26
M  V30 80 1 77 26
M  V30 81 1 78 27
M  V30 82 1 79 27
M  V30 83 1 80 27
M  V30 84 1 30 81 CFG=3
M  V30 85 1 82 31
M  V30 86 1 83 31
M  V30 87 1 84 32
M  V30 88 1 85 32
M  V30 89 1 86 32
M  V30 90 1 33 87 CFG=1
M  V30 91 1 88 35
M  V30 92 1 89 35
M  V30 93 1 90 36
M  V30 94 1 91 36
M  V30 95 1 92 37
M  V30 96 1 93 37
M  V30 97 1 94 39
M  V30 98 1 95 39
M  V30 99 1 40 96 CFG=3
M  V30 100 1 97 41
M  V30 101 1 98 41
M  V30 102 1 99 42
M  V30 103 1 100 42
M  V30 104 1 101 43
M  V30 105 1 102 43
M  V30 106 1 103 44
M  V30 107 1 104 44
M  V30 108 1 105 45
M  V30 109 1 106 46
M  V30 110 1 107 46
M  V30 111 1 108 47
M  V30 112 1 109 47
M  V30 113 1 110 48
M  V30 114 1 111 48
M  V30 115 1 112 49
M  V30 116 1 113 49
M  V30 117 1 114 24
M  V30 END BOND
M  V30 END CTAB
M  END
>  <i_epik_Tot_Q>  (1) 
1

>  <i_epik_Tot_abs_Q>  (1) 
1

>  <i_i_glide_confnum>  (1) 
5493

>  <i_i_glide_lignum>  (1) 
153

>  <i_i_glide_posenum>  (1) 
180

>  <i_i_glide_rotatable_bonds>  (1) 
25

>  <i_lp_mmshare_version>  (1) 
72125

>  <i_m_source_file_index>  (1) 
87

>  <i_f3d_flags>  (1) 
0

>  <num_sample>  (1) 
100

>  <b_lp_Chiralities_Consistent>  (1) 
1

>  <r_epik_Charging_Adjusted_Penalty>  (1) 
0.16001273794586685

>  <r_epik_Ionization_Penalty>  (1) 
0.080843455150849161

>  <r_epik_Ionization_Penalty_Charging>  (1) 
0.080842825825004877

>  <r_epik_Ionization_Penalty_Neutral>  (1) 
6.2932584428919515e-07

>  <r_epik_State_Penalty>  (1) 
0.079169912120861954

>  <r_glide_ring_energy>  (1) 
0

>  <r_i_docking_score>  (1) 
-7.0309732501253315

>  <r_i_glide_ecoul>  (1) 
-13.168550721819354

>  <r_i_glide_eff_state_penalty>  (1) 
0.079169912120861954

>  <r_i_glide_einternal>  (1) 
64.752829512679043

>  <r_i_glide_emodel>  (1) 
-30.90127531432649

>  <r_i_glide_emodel_strain>  (1) 
5.6077573833905063

>  <r_i_glide_energy>  (1) 
-50.539980886133989

>  <r_i_glide_erotb>  (1) 
0.57386026422142977

>  <r_i_glide_esite>  (1) 
-0.098640984719189084

>  <r_i_glide_evdw>  (1) 
-37.371430164314631

>  <r_i_glide_gscore>  (1) 
-7.1101431622461932

>  <r_i_glide_gscore_strain>  (1) 
0.40193934584762658

>  <r_i_glide_hbond>  (1) 
-0.56321126513081832

>  <r_i_glide_ligand_efficiency>  (1) 
-0.14348925000255777

>  <r_i_glide_ligand_efficiency_ln>  (1) 
-1.4372918099303262

>  <r_i_glide_ligand_efficiency_sa>  (1) 
-0.52507103186127346

>  <r_i_glide_lipo>  (1) 
-2.8582447976424006

>  <r_i_glide_metal>  (1) 
-0

>  <r_i_glide_rewards>  (1) 
-0.72199160833420606

>  <r_lp_Energy>  (1) 
50.891874999999999

>  <s_epik_Chemistry_Notes>  (1) 
This compound has an ester and may undergo hydrolysis at high or low pH. This compound has an imine and may undergo hydrolysis. This compound contains an acetal/aminal-like group ( X-CH(R)-Y where X, Y are N, S, or O) that may be acid/base labile, releasing an aldehyde.

>  <s_epik_cmdline>  (1) 
J2VwaWtfcHl0aG9uJywgJy1waHQnLCAnMS4wJywgJy1waCcsICc3LjQnLCAnLXRuJywgJzgnLCAnLW1hJywgJzUwMCcsICctaW1hZScsICc8aW5maWxlLm1hZT4nLCAnLW9tYWUnLCAnPG91dGZpbGUubWFlPic=

>  <s_epik_input>  (1) 
W09IXVtDQEBIXShbQ0gyXTEpW0NIMl1bQ0gyXVtDQEhdKFAxMj1PKVtDQEBdMihbQ0gyXVtDSDNdKUMoPVtDSDJdKVtDQF0zKFtDSDJdW0NIM10pW0NAQEhdKFtDSDNdKVtDSDJdW0NAQEhdKFtDQEBIXShPMylbQ0gyXVtPSF0pW0NIMl1bQ0BIXShbT0hdKVtDQEhdKFtDSDJdW0NIMl1bQ0gyXVtDQEBIXTRbQ0gyXVtDQEhdNFtDSDNdKU9DKD1PKVtDSDJdQyg9TlxbQ0gyXU9GKVxbTkhdW0NIMl1bQ0gyXVtDSDJdW0NIM10=

>  <s_glide_docking_method>  (1) 
confgen

>  <s_i_glide_gridfile>  (1) 
gpcr_drd2_6luq_protein_autoprepared_prepared

>  <s_lp_Force_Field>  (1) 
S-OPLS

>  <s_lp_Variant>  (1) 
DiffSBDD_86-1

>  <s_m_source_file>  (1) 
generated_generic_title2_ligand_DiffSBDD_2026-06-23_prepared.sdf

>  <GenAI_Model>  (1) 
DiffSBDD

>  <Protein>  (1) 
generic_title2

$$$$
DiffSBDD_8
     RDKit          3D

  0  0  0  0  0  0  0  0  0  0999 V3000
M  V30 BEGIN CTAB
M  V30 COUNTS 62 64 0 0 1
M  V30 BEGIN ATOM
M  V30 1 C 9.741363 8.090590 -9.967056 0
M  V30 2 O 10.552079 8.941504 -6.082437 0
M  V30 3 C 6.017763 6.704242 -16.383980 0
M  V30 4 N 12.175477 8.652907 -7.585070 0
M  V30 5 C 7.290468 2.971348 -14.050760 0 CFG=2
M  V30 6 C 7.483368 5.923895 -14.094275 0
M  V30 7 N 8.975411 6.918594 -6.924496 0 CHG=1
M  V30 8 C 4.666428 0.396775 -13.992478 0
M  V30 9 C 6.826315 -0.212703 -12.842359 0
M  V30 10 O 7.919251 0.917149 -14.914456 0
M  V30 11 C 6.575729 5.419919 -16.319077 0
M  V30 12 C 4.692607 -0.273386 -15.375025 0
M  V30 13 O 7.778739 3.728319 -15.119693 0
M  V30 14 S 9.439231 6.899095 -12.384850 0
M  V30 15 C 8.378289 2.975944 -12.963614 0
M  V30 16 C 8.306203 5.530928 -12.843894 0 CFG=2
M  V30 17 N 8.975412 7.112289 -10.743506 0 CFG=1 CHG=1
M  V30 18 F 5.321070 7.085189 -17.480880 0
M  V30 19 C 7.923608 0.837913 -16.331105 0
M  V30 20 C 9.313251 6.034224 -9.812831 0
M  V30 21 C 9.179440 4.280787 -13.005534 0
M  V30 22 C 10.282175 6.967307 -9.085758 0 CFG=2
M  V30 23 C 6.026014 0.928883 -13.477034 0 CFG=1
M  V30 24 N 6.768111 1.695833 -14.501276 0
M  V30 25 C 11.024634 8.298572 -7.015202 0
M  V30 26 C 6.175400 7.591959 -15.311609 0
M  V30 27 C 6.910740 7.208324 -14.172512 0
M  V30 28 C 7.290245 5.010006 -15.176565 0
M  V30 29 C 10.316946 7.037985 -7.533689 0 CFG=1
M  V30 30 H 10.516418 8.611329 -10.530045 0
M  V30 31 H 9.087686 8.790191 -9.442887 0
M  V30 32 H 12.667073 9.470092 -7.253433 0
M  V30 33 H 12.558044 8.104270 -8.340615 0
M  V30 34 H 6.423488 3.503824 -13.653031 0
M  V30 35 H 9.050869 7.096487 -5.931569 0
M  V30 36 H 8.325056 7.590111 -7.315690 0
M  V30 37 H 4.283784 -0.325473 -13.270437 0
M  V30 38 H 3.923021 1.190247 -13.985023 0
M  V30 39 H 6.286129 -0.659714 -12.007205 0
M  V30 40 H 6.975403 -0.994850 -13.585057 0
M  V30 41 H 7.796026 0.115740 -12.469952 0
M  V30 42 H 6.446323 4.738492 -17.144676 0
M  V30 43 H 3.728181 -0.719843 -15.608430 0
M  V30 44 H 4.912404 0.442730 -16.163733 0
M  V30 45 H 5.437069 -1.067344 -15.420840 0
M  V30 46 H 7.909615 2.867843 -11.990342 0
M  V30 47 H 9.042541 2.125175 -13.100419 0
M  V30 48 H 7.596759 5.374918 -12.030620 0
M  V30 49 H 8.840814 0.348717 -16.657303 0
M  V30 50 H 7.093133 0.243362 -16.706649 0
M  V30 51 H 7.890299 1.819796 -16.803894 0
M  V30 52 H 8.435277 5.751258 -9.231759 0
M  V30 53 H 9.775425 5.154231 -10.250642 0
M  V30 54 H 9.912833 4.218338 -12.204448 0
M  V30 55 H 9.775423 4.390185 -13.912194 0
M  V30 56 H 11.291192 6.788530 -9.459351 0
M  V30 57 H 5.783758 1.614388 -12.664738 0
M  V30 58 H 5.739794 8.577334 -15.365718 0
M  V30 59 H 7.036259 7.905828 -13.358741 0
M  V30 60 H 10.894237 6.188042 -7.166482 0
M  V30 61 H 7.990215 7.351281 -10.591683 0
M  V30 62 H 8.595258 5.995216 -7.066575 0
M  V30 END ATOM
M  V30 BEGIN BOND
M  V30 1 2 11 3
M  V30 2 1 12 8
M  V30 3 1 13 5
M  V30 4 1 15 5
M  V30 5 1 16 6
M  V30 6 1 16 14
M  V30 7 1 17 1
M  V30 8 1 17 14
M  V30 9 1 18 3
M  V30 10 1 19 10
M  V30 11 1 20 17
M  V30 12 1 21 15
M  V30 13 1 21 16
M  V30 14 1 22 1
M  V30 15 1 22 20
M  V30 16 1 23 8
M  V30 17 1 23 9
M  V30 18 1 24 5
M  V30 19 1 24 10
M  V30 20 1 24 23
M  V30 21 2 25 2
M  V30 22 1 25 4
M  V30 23 1 26 3
M  V30 24 1 27 6
M  V30 25 2 27 26
M  V30 26 2 28 6
M  V30 27 1 28 11
M  V30 28 1 28 13
M  V30 29 1 29 7
M  V30 30 1 29 22
M  V30 31 1 29 25
M  V30 32 1 30 1
M  V30 33 1 31 1
M  V30 34 1 32 4
M  V30 35 1 33 4
M  V30 36 1 5 34 CFG=1
M  V30 37 1 35 7
M  V30 38 1 36 7
M  V30 39 1 37 8
M  V30 40 1 38 8
M  V30 41 1 39 9
M  V30 42 1 40 9
M  V30 43 1 41 9
M  V30 44 1 42 11
M  V30 45 1 43 12
M  V30 46 1 44 12
M  V30 47 1 45 12
M  V30 48 1 46 15
M  V30 49 1 47 15
M  V30 50 1 16 48 CFG=1
M  V30 51 1 49 19
M  V30 52 1 50 19
M  V30 53 1 51 19
M  V30 54 1 52 20
M  V30 55 1 53 20
M  V30 56 1 54 21
M  V30 57 1 55 21
M  V30 58 1 22 56 CFG=3
M  V30 59 1 23 57 CFG=1
M  V30 60 1 58 26
M  V30 61 1 59 27
M  V30 62 1 29 60 CFG=1
M  V30 63 1 17 61 CFG=3
M  V30 64 1 62 7
M  V30 END BOND
M  V30 END CTAB
M  END
>  <i_epik_Tot_Q>  (1) 
2

>  <i_epik_Tot_abs_Q>  (1) 
2

>  <i_i_glide_confnum>  (1) 
356

>  <i_i_glide_lignum>  (1) 
13

>  <i_i_glide_posenum>  (1) 
138

>  <i_i_glide_rotatable_bonds>  (1) 
8

>  <i_lp_mmshare_version>  (1) 
72125

>  <i_m_source_file_index>  (1) 
9

>  <i_f3d_flags>  (1) 
0

>  <num_sample>  (1) 
100

>  <b_lp_Chiralities_Consistent>  (1) 
1

>  <r_epik_Charging_Adjusted_Penalty>  (1) 
1.8967099088143093

>  <r_epik_Ionization_Penalty>  (1) 
0.97230814562840162

>  <r_epik_Ionization_Penalty_Charging>  (1) 
0.97206898566559774

>  <r_epik_Ionization_Penalty_Neutral>  (1) 
0.00023915996280393024

>  <r_epik_State_Penalty>  (1) 
0.9246409231487116

>  <r_glide_ring_energy>  (1) 
0.47634900413209158

>  <r_i_docking_score>  (1) 
-6.9944853003529976

>  <r_i_glide_ecoul>  (1) 
-10.793807557108002

>  <r_i_glide_eff_state_penalty>  (1) 
0.9246409231487116

>  <r_i_glide_einternal>  (1) 
19.759949534785296

>  <r_i_glide_emodel>  (1) 
-61.816194021026156

>  <r_i_glide_emodel_strain>  (1) 
1.8185822839532619

>  <r_i_glide_energy>  (1) 
-46.316402877654966

>  <r_i_glide_erotb>  (1) 
0.37853286695913396

>  <r_i_glide_esite>  (1) 
-0.1874892222881023

>  <r_i_glide_evdw>  (1) 
-35.522595320546962

>  <r_i_glide_gscore>  (1) 
-7.919126223501709

>  <r_i_glide_gscore_strain>  (1) 
0

>  <r_i_glide_hbond>  (1) 
-0.24759019561950871

>  <r_i_glide_ligand_efficiency>  (1) 
-0.24118914828803439

>  <r_i_glide_ligand_efficiency_ln>  (1) 
-1.6015597689370769

>  <r_i_glide_ligand_efficiency_sa>  (1) 
-0.74100947845816711

>  <r_i_glide_lipo>  (1) 
-1.7354737200979777

>  <r_i_glide_metal>  (1) 
-0

>  <r_i_glide_rewards>  (1) 
-2.7319050528617064

>  <r_lp_Energy>  (1) 
49.910619999999994

>  <r_lp_tautomer_probability>  (1) 
1

>  <s_epik_Chemistry_Notes>  (1) 
This compound contains an acetal/aminal-like group ( X-CH(R)-Y where X, Y are N, S, or O) that may be acid/base labile, releasing an aldehyde. This compound has a N-S or N-O group and may undergo hydrolysis at high or low pH.

>  <s_epik_cmdline>  (1) 
J2VwaWtfcHl0aG9uJywgJy1waHQnLCAnMS4wJywgJy1waCcsICc3LjQnLCAnLXRuJywgJzgnLCAnLW1hJywgJzUwMCcsICctaW1hZScsICc8aW5maWxlLm1hZT4nLCAnLW9tYWUnLCAnPG91dGZpbGUubWFlPic=

>  <s_epik_input>  (1) 
Tz1DKFtOSDJdKVtDQEBIXShbTkgyXSlbQ0hdKFtDSDJdMSlbQ0gyXU4xU1tDQEBIXTJbQ0gyXVtDSDJdW0NASF0oTihPW0NIM10pW0NASF0oW0NIM10pW0NIMl1bQ0gzXSlPYyhjMjMpW2NIXWMoRilbY0hdW2NIXTM=

>  <s_glide_docking_method>  (1) 
confgen

>  <s_i_glide_gridfile>  (1) 
gpcr_drd2_6luq_protein_autoprepared_prepared

>  <s_lp_Force_Field>  (1) 
S-OPLS

>  <s_lp_Variant>  (1) 
DiffSBDD_8-3

>  <s_m_source_file>  (1) 
generated_generic_title2_ligand_DiffSBDD_2026-06-23_prepared.sdf

>  <GenAI_Model>  (1) 
DiffSBDD

>  <Protein>  (1) 
generic_title2

$$$$
DiffSBDD_63
     RDKit          3D

  0  0  0  0  0  0  0  0  0  0999 V3000
M  V30 BEGIN CTAB
M  V30 COUNTS 47 48 0 0 1
M  V30 BEGIN ATOM
M  V30 1 C 12.385844 7.991064 -2.600282 0
M  V30 2 C 11.170606 8.005512 -5.148081 0
M  V30 3 C 6.759055 4.855852 -13.325346 0
M  V30 4 C 7.366653 3.651162 -13.310882 0
M  V30 5 C 11.375408 6.783442 -4.463972 0
M  V30 6 C 8.330180 5.239640 -8.911071 0
M  V30 7 C 5.641494 7.557787 -15.679627 0
M  V30 8 F 12.975313 7.990218 -1.383242 0
M  V30 9 C 10.175433 6.509809 -8.115305 0
M  V30 10 C 6.547303 5.048454 -10.804183 0
M  V30 11 C 6.587072 5.528179 -14.629486 0
M  V30 12 O 7.023099 5.107641 -15.701683 0
M  V30 13 N 9.875995 6.781104 -6.917656 0
M  V30 14 C 10.332363 8.194700 -10.005662 0
M  V30 15 S 4.575384 6.790227 -16.938648 0
M  V30 16 C 11.982929 6.781017 -3.190284 0
M  V30 17 F 11.375383 10.390194 -5.185618 0
M  V30 18 C 12.177661 9.202236 -3.272400 0
M  V30 19 S 11.812337 8.452601 -7.740339 0
M  V30 20 C 11.069101 7.374830 -8.949097 0 CFG=1
M  V30 21 O 9.740774 5.388957 -8.774405 0
M  V30 22 C 8.008314 5.325976 -10.411626 0
M  V30 23 N 6.294405 5.499867 -12.170290 0
M  V30 24 N 5.896379 6.682978 -14.531057 0
M  V30 25 C 10.520589 8.026919 -6.527266 0 CFG=2
M  V30 26 C 11.573279 9.215339 -4.544514 0
M  V30 27 H 11.070937 5.850377 -4.912983 0
M  V30 28 H 8.022899 4.286483 -8.489453 0
M  V30 29 H 7.775404 5.990228 -8.358310 0
M  V30 30 H 5.143414 8.457383 -15.323447 0
M  V30 31 H 6.575411 7.869934 -16.142931 0
M  V30 32 H 6.289538 3.996665 -10.674843 0
M  V30 33 H 5.882987 5.610116 -10.148071 0
M  V30 34 H 10.028245 7.581418 -10.851592 0
M  V30 35 H 11.012538 8.951786 -10.385012 0
M  V30 36 H 9.451027 8.696864 -9.601693 0
M  V30 37 H 3.551399 6.518144 -16.127108 0
M  V30 38 H 12.141043 5.847861 -2.669455 0
M  V30 39 H 12.483368 10.124052 -2.809808 0
M  V30 40 H 11.851749 6.790254 -9.421251 0
M  V30 41 H 8.669475 4.653185 -10.958170 0
M  V30 42 H 8.253783 6.330527 -10.748541 0
M  V30 43 H 5.557019 6.978764 -13.633379 0
M  V30 44 H 9.769997 8.819498 -6.539443 0
M  V30 45 H 7.522805 3.115002 -12.387908 0
M  V30 46 H 7.714036 3.188548 -14.224106 0
M  V30 47 H 5.892190 6.417669 -12.257642 0
M  V30 END ATOM
M  V30 BEGIN BOND
M  V30 1 2 4 3
M  V30 2 1 5 2
M  V30 3 1 8 1
M  V30 4 1 11 3
M  V30 5 2 12 11
M  V30 6 2 13 9
M  V30 7 1 15 7
M  V30 8 1 16 1
M  V30 9 2 16 5
M  V30 10 2 18 1
M  V30 11 1 20 9
M  V30 12 1 20 14
M  V30 13 1 20 19
M  V30 14 1 21 6
M  V30 15 1 21 9
M  V30 16 1 22 6
M  V30 17 1 22 10
M  V30 18 1 23 3
M  V30 19 1 23 10
M  V30 20 1 24 7
M  V30 21 1 24 11
M  V30 22 1 25 2
M  V30 23 1 25 13
M  V30 24 1 25 19
M  V30 25 2 26 2
M  V30 26 1 26 17
M  V30 27 1 26 18
M  V30 28 1 27 5
M  V30 29 1 28 6
M  V30 30 1 29 6
M  V30 31 1 30 7
M  V30 32 1 31 7
M  V30 33 1 32 10
M  V30 34 1 33 10
M  V30 35 1 34 14
M  V30 36 1 35 14
M  V30 37 1 36 14
M  V30 38 1 37 15
M  V30 39 1 38 16
M  V30 40 1 39 18
M  V30 41 1 20 40 CFG=3
M  V30 42 1 41 22
M  V30 43 1 42 22
M  V30 44 1 43 24
M  V30 45 1 25 44 CFG=1
M  V30 46 1 45 4
M  V30 47 1 46 4
M  V30 48 1 47 23
M  V30 END BOND
M  V30 END CTAB
M  END
>  <i_epik_Tot_Q>  (1) 
0

>  <i_epik_Tot_abs_Q>  (1) 
0

>  <i_i_glide_confnum>  (1) 
415

>  <i_i_glide_lignum>  (1) 
101

>  <i_i_glide_posenum>  (1) 
14

>  <i_i_glide_rotatable_bonds>  (1) 
11

>  <i_lp_mmshare_version>  (1) 
72125

>  <i_m_source_file_index>  (1) 
64

>  <i_f3d_flags>  (1) 
0

>  <num_sample>  (1) 
100

>  <b_lp_Chiralities_Consistent>  (1) 
1

>  <r_epik_Charging_Adjusted_Penalty>  (1) 
0.013849271164821807

>  <r_epik_Ionization_Penalty>  (1) 
0.12391676861929035

>  <r_epik_Ionization_Penalty_Charging>  (1) 
0.013849271164821807

>  <r_epik_Ionization_Penalty_Neutral>  (1) 
0.11006749745446855

>  <r_epik_State_Penalty>  (1) 
-0

>  <r_glide_ring_energy>  (1) 
0

>  <r_i_docking_score>  (1) 
-6.9935449775206502

>  <r_i_glide_ecoul>  (1) 
-1.7543131488324737

>  <r_i_glide_eff_state_penalty>  (1) 
-0

>  <r_i_glide_einternal>  (1) 
6.3063615545994205

>  <r_i_glide_emodel>  (1) 
-62.884270373517751

>  <r_i_glide_emodel_strain>  (1) 
1.4251360696335809

>  <r_i_glide_energy>  (1) 
-48.122827415641737

>  <r_i_glide_erotb>  (1) 
1.2167697096945405

>  <r_i_glide_esite>  (1) 
-0.045745264461889229

>  <r_i_glide_evdw>  (1) 
-46.368514266809264

>  <r_i_glide_gscore>  (1) 
-6.9935449775206502

>  <r_i_glide_gscore_strain>  (1) 
0

>  <r_i_glide_hbond>  (1) 
0

>  <r_i_glide_ligand_efficiency>  (1) 
-0.26898249913540961

>  <r_i_glide_ligand_efficiency_ln>  (1) 
-1.6424110902779556

>  <r_i_glide_ligand_efficiency_sa>  (1) 
-0.79685959615904012

>  <r_i_glide_lipo>  (1) 
-2.9749760724299552

>  <r_i_glide_metal>  (1) 
-0

>  <r_i_glide_rewards>  (1) 
-2.608020664658012

>  <r_lp_Energy>  (1) 
17.542904

>  <r_lp_tautomer_probability>  (1) 
1

>  <s_epik_Chemistry_Notes>  (1) 
This compound has an imine and may undergo hydrolysis. This compound contains an acetal/aminal-like group ( X-CH(R)-Y where X, Y are N, S, or O) that may be acid/base labile, releasing an aldehyde.

>  <s_epik_cmdline>  (1) 
J2VwaWtfcHl0aG9uJywgJy1waHQnLCAnMS4wJywgJy1waCcsICc3LjQnLCAnLXRuJywgJzgnLCAnLW1hJywgJzUwMCcsICctaW1hZScsICc8aW5maWxlLm1hZT4nLCAnLW9tYWUnLCAnPG91dGZpbGUubWFlPic=

>  <s_epik_input>  (1) 
RmMxW2NIXVtjSF1jKGMoRilbY0hdMSlbQ0BIXShTW0NAQEhdMltDSDNdKU49QzJPW0NIMl1bQ0gyXVtDSDJdW05IXUMoPVtDSDJdKUMoPU8pW05IXVtDSDJdW1NIXQ==

>  <s_glide_docking_method>  (1) 
confgen

>  <s_i_glide_gridfile>  (1) 
gpcr_drd2_6luq_protein_autoprepared_prepared

>  <s_lp_Force_Field>  (1) 
S-OPLS

>  <s_lp_Variant>  (1) 
DiffSBDD_63-2

>  <s_m_source_file>  (1) 
generated_generic_title2_ligand_DiffSBDD_2026-06-23_prepared.sdf

>  <GenAI_Model>  (1) 
DiffSBDD

>  <Protein>  (1) 
generic_title2

$$$$
DiffSBDD_44
     RDKit          3D

  0  0  0  0  0  0  0  0  0  0999 V3000
M  V30 BEGIN CTAB
M  V30 COUNTS 46 48 0 0 1
M  V30 BEGIN ATOM
M  V30 1 C 8.414289 3.880951 -12.952517 0 CFG=2
M  V30 2 C 10.544099 7.117252 -7.545939 0
M  V30 3 C 11.375015 8.028429 -5.357636 0
M  V30 4 C 7.173830 4.422267 -13.524484 0 CFG=1
M  V30 5 O 10.285597 8.458396 -9.496388 0
M  V30 6 C 12.176524 7.850163 -2.649698 0
M  V30 7 C 11.374866 6.778249 -4.691099 0
M  V30 8 C 8.447844 6.349463 -12.072537 0
M  V30 9 O 11.773872 10.390274 -5.272250 0
M  V30 10 O 5.881605 6.440677 -16.368193 0
M  V30 11 C 10.967822 8.143841 -6.783146 0
M  V30 12 C 11.775047 9.183922 -4.650050 0
M  V30 13 O 8.085589 4.928222 -15.686516 0
M  V30 14 C 6.274957 6.355214 -15.012205 0
M  V30 15 C 9.622360 6.176282 -9.748288 0
M  V30 16 N 6.066385 5.590227 -10.385069 0 CHG=1
M  V30 17 C 9.772697 6.262289 -11.288890 0
M  V30 18 O 7.505693 3.024679 -13.666459 0
M  V30 19 C 7.708066 5.006845 -12.206936 0 CFG=2
M  V30 20 C 7.257996 5.201855 -14.815579 0
M  V30 21 C 11.775410 6.694378 -3.341802 0
M  V30 22 C 10.174262 7.358205 -8.952419 0
M  V30 23 C 6.994658 4.583265 -10.926645 0
M  V30 24 C 12.175159 9.093229 -3.303005 0
M  V30 25 H 9.340463 4.103338 -13.478639 0
M  V30 26 H 10.465015 6.115427 -7.157086 0
M  V30 27 H 12.483889 7.783462 -1.615988 0
M  V30 28 H 11.072700 5.883233 -5.210203 0
M  V30 29 H 7.799067 7.116421 -11.649501 0
M  V30 30 H 8.688731 6.714662 -13.070004 0
M  V30 31 H 11.454704 10.350641 -6.159369 0
M  V30 32 H 6.664397 6.462087 -16.899847 0
M  V30 33 H 11.022855 9.127696 -7.222597 0
M  V30 34 H 6.755459 7.287502 -14.713583 0
M  V30 35 H 5.394257 6.215570 -14.385105 0
M  V30 36 H 10.082317 5.261305 -9.374431 0
M  V30 37 H 8.573637 6.132093 -9.468713 0
M  V30 38 H 5.620346 5.211802 -9.552155 0
M  V30 39 H 5.355577 5.814879 -11.063294 0
M  V30 40 H 10.320225 5.391883 -11.644791 0
M  V30 41 H 10.393495 7.113004 -11.573839 0
M  V30 42 H 11.775173 5.738680 -2.839505 0
M  V30 43 H 6.421475 3.675578 -11.122002 0
M  V30 44 H 7.731171 4.318875 -10.171908 0
M  V30 45 H 12.483212 9.980973 -2.772325 0
M  V30 46 H 6.550026 6.462297 -10.108058 0
M  V30 END ATOM
M  V30 BEGIN BOND
M  V30 1 1 4 1
M  V30 2 2 7 3
M  V30 3 2 11 2
M  V30 4 1 11 3
M  V30 5 1 12 3
M  V30 6 1 12 9
M  V30 7 1 14 10
M  V30 8 1 17 8
M  V30 9 1 17 15
M  V30 10 1 18 1
M  V30 11 1 18 4
M  V30 12 1 19 1
M  V30 13 1 19 4
M  V30 14 1 19 8 CFG=3
M  V30 15 1 4 20 CFG=3
M  V30 16 2 20 13
M  V30 17 1 20 14
M  V30 18 2 21 6
M  V30 19 1 21 7
M  V30 20 1 22 2
M  V30 21 2 22 5
M  V30 22 1 22 15
M  V30 23 1 23 16
M  V30 24 1 23 19
M  V30 25 1 24 6
M  V30 26 2 24 12
M  V30 27 1 1 25 CFG=3
M  V30 28 1 26 2
M  V30 29 1 27 6
M  V30 30 1 28 7
M  V30 31 1 29 8
M  V30 32 1 30 8
M  V30 33 1 31 9
M  V30 34 1 32 10
M  V30 35 1 33 11
M  V30 36 1 34 14
M  V30 37 1 35 14
M  V30 38 1 36 15
M  V30 39 1 37 15
M  V30 40 1 38 16
M  V30 41 1 39 16
M  V30 42 1 40 17
M  V30 43 1 41 17
M  V30 44 1 42 21
M  V30 45 1 43 23
M  V30 46 1 44 23
M  V30 47 1 45 24
M  V30 48 1 46 16
M  V30 END BOND
M  V30 END CTAB
M  END
>  <i_epik_Tot_Q>  (1) 
1

>  <i_epik_Tot_abs_Q>  (1) 
1

>  <i_i_glide_confnum>  (1) 
655

>  <i_i_glide_lignum>  (1) 
71

>  <i_i_glide_posenum>  (1) 
244

>  <i_i_glide_rotatable_bonds>  (1) 
11

>  <i_lp_mmshare_version>  (1) 
72125

>  <i_m_source_file_index>  (1) 
45

>  <i_f3d_flags>  (1) 
0

>  <num_sample>  (1) 
100

>  <b_lp_Chiralities_Consistent>  (1) 
1

>  <r_epik_Charging_Adjusted_Penalty>  (1) 
0.0039975134785533318

>  <r_epik_Ionization_Penalty>  (1) 
0.0083805373542956835

>  <r_epik_Ionization_Penalty_Charging>  (1) 
0.0039975134785533318

>  <r_epik_Ionization_Penalty_Neutral>  (1) 
0.0043830238757423508

>  <r_epik_State_Penalty>  (1) 
-0

>  <r_glide_ring_energy>  (1) 
0

>  <r_i_docking_score>  (1) 
-6.9751098784465064

>  <r_i_glide_ecoul>  (1) 
-11.483255637326105

>  <r_i_glide_eff_state_penalty>  (1) 
-0

>  <r_i_glide_einternal>  (1) 
7.8611993097059489

>  <r_i_glide_emodel>  (1) 
-66.58136384140623

>  <r_i_glide_emodel_strain>  (1) 
0.58588263417908593

>  <r_i_glide_energy>  (1) 
-45.499327549432621

>  <r_i_glide_erotb>  (1) 
1.3638172886518747

>  <r_i_glide_esite>  (1) 
-0.16359092730647551

>  <r_i_glide_evdw>  (1) 
-34.016071912106518

>  <r_i_glide_gscore>  (1) 
-6.9751098784465064

>  <r_i_glide_gscore_strain>  (1) 
0

>  <r_i_glide_hbond>  (1) 
-0.20000000000000001

>  <r_i_glide_ligand_efficiency>  (1) 
-0.29062957826860442

>  <r_i_glide_ligand_efficiency_ln>  (1) 
-1.6694638608487302

>  <r_i_glide_ligand_efficiency_sa>  (1) 
-0.83832076875303607

>  <r_i_glide_lipo>  (1) 
-2.5983305038702538

>  <r_i_glide_metal>  (1) 
-0

>  <r_i_glide_rewards>  (1) 
-1.9537137947174099

>  <r_lp_Energy>  (1) 
24.892022999999998

>  <r_lp_tautomer_probability>  (1) 
1

>  <s_epik_cmdline>  (1) 
J2VwaWtfcHl0aG9uJywgJy1waHQnLCAnMS4wJywgJy1waCcsICc3LjQnLCAnLXRuJywgJzgnLCAnLW1hJywgJzUwMCcsICctaW1hZScsICc8aW5maWxlLm1hZT4nLCAnLW9tYWUnLCAnPG91dGZpbGUubWFlPic=

>  <s_epik_input>  (1) 
W09IXVtDSDJdQyg9TylbQ0BdMTJbQ0BIXShPMSlbQ0BAXTIoW0NIMl1bTkgyXSlbQ0gyXVtDSDJdW0NIMl1DKD1PKS9bQ0hdPVtDSF0vYzNbY0hdW2NIXVtjSF1bY0hdYzNbT0hd

>  <s_glide_docking_method>  (1) 
confgen

>  <s_i_glide_gridfile>  (1) 
gpcr_drd2_6luq_protein_autoprepared_prepared

>  <s_lp_Force_Field>  (1) 
S-OPLS

>  <s_lp_Variant>  (1) 
DiffSBDD_44-1

>  <s_m_source_file>  (1) 
generated_generic_title2_ligand_DiffSBDD_2026-06-23_prepared.sdf

>  <GenAI_Model>  (1) 
DiffSBDD

>  <Protein>  (1) 
generic_title2

$$$$
DiffSBDD_76
     RDKit          3D

  0  0  0  0  0  0  0  0  0  0999 V3000
M  V30 BEGIN CTAB
M  V30 COUNTS 54 57 0 0 1
M  V30 BEGIN ATOM
M  V30 1 N 8.975878 5.990517 -8.658828 0 CHG=1
M  V30 2 N 7.555468 2.277818 -16.493208 0
M  V30 3 C 10.553401 7.068541 -7.061053 0 CFG=1
M  V30 4 C 7.468387 2.670705 -15.090883 0
M  V30 5 F 5.536897 5.583406 -10.628505 0
M  V30 6 C 7.583256 1.081663 -17.038658 0
M  V30 7 C 11.111299 7.364297 -5.634676 0
M  V30 8 C 9.285513 6.179207 -7.213957 0
M  V30 9 C 8.935885 4.171390 -12.586312 0
M  V30 10 C 7.871541 5.091983 -9.019670 0
M  V30 11 C 12.175309 7.877662 -3.054992 0
M  V30 12 N 7.613638 3.201545 -17.471636 0
M  V30 13 C 12.238310 8.867569 -4.046353 0
M  V30 14 C 11.576162 6.640033 -3.340791 0
M  V30 15 C 11.858952 9.640741 -6.381004 0
M  V30 16 N 7.530865 -0.035657 -16.221857 0
M  V30 17 C 11.609475 9.188437 -7.809805 0
M  V30 18 C 11.035458 6.390225 -4.621582 0
M  V30 19 C 7.756622 4.421812 -13.313183 0
M  V30 20 C 10.348352 8.363910 -7.867471 0
M  V30 21 O 12.175234 10.790245 -6.148967 0
M  V30 22 C 6.609798 4.900910 -12.649823 0
M  V30 23 N 7.660963 1.054491 -18.349287 0
M  V30 24 C 7.721388 4.163522 -14.805870 0
M  V30 25 C 8.971065 4.390191 -11.197823 0
M  V30 26 C 6.641771 5.124790 -11.259479 0
M  V30 27 C 7.827219 4.864458 -10.527127 0
M  V30 28 C 7.676558 2.422350 -18.573511 0
M  V30 29 C 11.725979 8.611733 -5.341521 0
M  V30 30 H 9.806245 5.682065 -9.140902 0
M  V30 31 H 11.365205 6.519483 -7.541648 0
M  V30 32 H 6.488822 2.376222 -14.716726 0
M  V30 33 H 8.195022 2.074843 -14.539902 0
M  V30 34 H 8.433305 6.629310 -6.703912 0
M  V30 35 H 9.446673 5.192718 -6.786255 0
M  V30 36 H 9.812817 3.804808 -13.095880 0
M  V30 37 H 6.975435 5.590188 -8.707890 0
M  V30 38 H 7.919969 4.155430 -8.468043 0
M  V30 39 H 12.580222 8.069759 -2.071926 0
M  V30 40 H 12.703954 9.817497 -3.825030 0
M  V30 41 H 11.519915 5.880133 -2.574292 0
M  V30 42 H 7.543992 -0.971307 -16.605932 0
M  V30 43 H 7.462595 0.044055 -15.218350 0
M  V30 44 H 11.574700 9.999250 -8.526488 0
M  V30 45 H 12.462209 8.581215 -8.114725 0
M  V30 46 H 10.576063 5.454094 -4.818941 0
M  V30 47 H 10.127821 8.180893 -8.918024 0
M  V30 48 H 9.503119 8.931711 -7.469923 0
M  V30 49 H 5.703710 5.093097 -13.205256 0
M  V30 50 H 8.674840 4.472762 -15.236598 0
M  V30 51 H 6.950878 4.780850 -15.270445 0
M  V30 52 H 9.873148 4.187484 -10.646635 0
M  V30 53 H 7.731937 2.848745 -19.564265 0
M  V30 54 H 8.691591 6.890154 -9.035163 0
M  V30 END ATOM
M  V30 BEGIN BOND
M  V30 1 1 4 2
M  V30 2 1 6 2
M  V30 3 1 7 3
M  V30 4 1 8 1
M  V30 5 1 8 3
M  V30 6 1 10 1
M  V30 7 1 12 2
M  V30 8 1 13 11
M  V30 9 2 14 11
M  V30 10 1 16 6
M  V30 11 1 17 15
M  V30 12 2 18 7
M  V30 13 1 18 14
M  V30 14 1 19 9
M  V30 15 1 20 3
M  V30 16 1 20 17
M  V30 17 2 21 15
M  V30 18 2 22 19
M  V30 19 2 23 6
M  V30 20 1 24 4
M  V30 21 1 24 19
M  V30 22 2 25 9
M  V30 23 1 26 5
M  V30 24 1 26 22
M  V30 25 1 27 10
M  V30 26 1 27 25
M  V30 27 2 27 26
M  V30 28 2 28 12
M  V30 29 1 28 23
M  V30 30 1 29 7
M  V30 31 2 29 13
M  V30 32 1 29 15
M  V30 33 1 30 1
M  V30 34 1 3 31 CFG=3
M  V30 35 1 32 4
M  V30 36 1 33 4
M  V30 37 1 34 8
M  V30 38 1 35 8
M  V30 39 1 36 9
M  V30 40 1 37 10
M  V30 41 1 38 10
M  V30 42 1 39 11
M  V30 43 1 40 13
M  V30 44 1 41 14
M  V30 45 1 42 16
M  V30 46 1 43 16
M  V30 47 1 44 17
M  V30 48 1 45 17
M  V30 49 1 46 18
M  V30 50 1 47 20
M  V30 51 1 48 20
M  V30 52 1 49 22
M  V30 53 1 50 24
M  V30 54 1 51 24
M  V30 55 1 52 25
M  V30 56 1 53 28
M  V30 57 1 54 1
M  V30 END BOND
M  V30 END CTAB
M  END
>  <i_epik_Tot_Q>  (1) 
1

>  <i_epik_Tot_abs_Q>  (1) 
1

>  <i_i_glide_confnum>  (1) 
6

>  <i_i_glide_lignum>  (1) 
125

>  <i_i_glide_posenum>  (1) 
128

>  <i_i_glide_rotatable_bonds>  (1) 
7

>  <i_lp_mmshare_version>  (1) 
72125

>  <i_m_source_file_index>  (1) 
77

>  <i_f3d_flags>  (1) 
0

>  <num_sample>  (1) 
100

>  <b_lp_Chiralities_Consistent>  (1) 
1

>  <r_epik_Charging_Adjusted_Penalty>  (1) 
0.13114515656656739

>  <r_epik_Ionization_Penalty>  (1) 
0.066343571056588849

>  <r_epik_Ionization_Penalty_Charging>  (1) 
0.065572578283283764

>  <r_epik_Ionization_Penalty_Neutral>  (1) 
0.00077099277330508725

>  <r_epik_State_Penalty>  (1) 
0.065572578283283625

>  <r_glide_ring_energy>  (1) 
0

>  <r_i_docking_score>  (1) 
-6.940994885135745

>  <r_i_glide_ecoul>  (1) 
-6.3438250722079736

>  <r_i_glide_eff_state_penalty>  (1) 
0.065572578283283625

>  <r_i_glide_einternal>  (1) 
5.9308943466567339

>  <r_i_glide_emodel>  (1) 
-53.620341709757902

>  <r_i_glide_emodel_strain>  (1) 
0.42404870646253556

>  <r_i_glide_energy>  (1) 
-33.996526799072079

>  <r_i_glide_erotb>  (1) 
0.75361898126616078

>  <r_i_glide_esite>  (1) 
-0.17684232331670732

>  <r_i_glide_evdw>  (1) 
-27.652701726864105

>  <r_i_glide_gscore>  (1) 
-7.0065674634190289

>  <r_i_glide_gscore_strain>  (1) 
0

>  <r_i_glide_hbond>  (1) 
-0.1456271185856457

>  <r_i_glide_ligand_efficiency>  (1) 
-0.23934465121157741

>  <r_i_glide_ligand_efficiency_ln>  (1) 
-1.5893118202522225

>  <r_i_glide_ligand_efficiency_sa>  (1) 
-0.73534259905523991

>  <r_i_glide_lipo>  (1) 
-2.7819211733494718

>  <r_i_glide_metal>  (1) 
-0

>  <r_i_glide_rewards>  (1) 
-2.321586982258963

>  <r_lp_Energy>  (1) 
27.011975

>  <r_lp_tautomer_probability>  (1) 
0.99994999147066566

>  <s_epik_cmdline>  (1) 
J2VwaWtfcHl0aG9uJywgJy1waHQnLCAnMS4wJywgJy1waCcsICc3LjQnLCAnLXRuJywgJzgnLCAnLW1hJywgJzUwMCcsICctaW1hZScsICc8aW5maWxlLm1hZT4nLCAnLW9tYWUnLCAnPG91dGZpbGUubWFlPic=

>  <s_epik_input>  (1) 
W2NIXTFbY0hdW2NIXVtjSF1jKGMxMilDKD1PKVtDSDJdW0NIMl1bQ0BIXTJbQ0gyXVtOSF1bQ0gyXWMoYyhGKVtjSF0zKVtjSF1bY0hdYzNbQ0gyXVtDSDJdbjRjKFtOSDJdKW5bY0hdbjQ=

>  <s_glide_docking_method>  (1) 
confgen

>  <s_i_glide_gridfile>  (1) 
gpcr_drd2_6luq_protein_autoprepared_prepared

>  <s_lp_Force_Field>  (1) 
S-OPLS

>  <s_lp_Variant>  (1) 
DiffSBDD_76-2

>  <s_m_source_file>  (1) 
generated_generic_title2_ligand_DiffSBDD_2026-06-23_prepared.sdf

>  <GenAI_Model>  (1) 
DiffSBDD

>  <Protein>  (1) 
generic_title2

$$$$
DiffSBDD_49
     RDKit          3D

  0  0  0  0  0  0  0  0  0  0999 V3000
M  V30 BEGIN CTAB
M  V30 COUNTS 60 61 0 0 1
M  V30 BEGIN ATOM
M  V30 1 C 7.913326 3.289335 -16.275066 0
M  V30 2 C 7.265803 3.811414 -15.136619 0
M  V30 3 C 6.738326 2.933891 -14.162256 0
M  V30 4 C 11.929500 8.918692 -2.667126 0
M  V30 5 N 9.823977 7.455734 -10.266134 0
M  V30 6 C 11.485643 8.265919 -7.723890 0
M  V30 7 O 11.843988 9.190183 -8.446143 0
M  V30 8 F 6.112873 3.432722 -13.068231 0
M  V30 9 C 7.318101 7.220468 -13.234955 0
M  V30 10 C 8.935532 5.303999 -13.219299 0
M  V30 11 O 13.253331 9.876503 -5.899533 0
M  V30 12 C 6.855142 1.537722 -14.333690 0
M  V30 13 C 7.505476 1.021322 -15.475103 0
M  V30 14 C 7.130856 5.317309 -14.962442 0
M  V30 15 C 11.950941 7.845458 -1.585026 0
M  V30 16 C 11.223201 6.888970 -8.331041 0
M  V30 17 C 9.877041 6.675766 -9.034098 0
M  V30 18 S 11.944961 9.393155 -5.436516 0
M  V30 19 C 6.270078 0.594985 -13.300927 0
M  V30 20 O 9.375397 8.756531 -9.865205 0
M  V30 21 C 10.976777 6.390144 -12.510355 0
M  V30 22 N 11.308339 8.261808 -6.390273 0 CHG=-1
M  V30 23 N 11.993304 6.790253 -12.884181 0
M  V30 24 C 8.883436 6.900931 -11.247877 0 CFG=2
M  V30 25 F 4.984553 0.390247 -13.585155 0
M  V30 26 C 9.691903 5.854679 -12.035871 0 CFG=1
M  V30 27 O 10.975129 10.390218 -4.971425 0
M  V30 28 C 7.863552 5.903182 -13.767035 0
M  V30 29 C 8.033467 1.896346 -16.441690 0
M  V30 30 F 7.620706 -0.315452 -15.644124 0
M  V30 31 C 10.817065 6.790228 -1.600283 0
M  V30 32 C 8.267300 7.916978 -12.238752 0
M  V30 33 C 12.318126 8.314357 -3.999930 0
M  V30 34 H 8.317516 3.956954 -17.021468 0
M  V30 35 H 12.645901 9.697359 -2.418929 0
M  V30 36 H 10.975398 9.425711 -2.703969 0
M  V30 37 H 6.359721 7.020317 -12.753938 0
M  V30 38 H 7.120953 7.889010 -14.073966 0
M  V30 39 H 9.301400 4.375002 -13.630652 0
M  V30 40 H 6.067700 5.534117 -14.857039 0
M  V30 41 H 7.458959 5.839379 -15.862355 0
M  V30 42 H 12.915518 7.337488 -1.607884 0
M  V30 43 H 11.908919 8.390341 -0.647859 0
M  V30 44 H 11.376550 6.103322 -7.589085 0
M  V30 45 H 11.991718 6.790230 -9.095354 0
M  V30 46 H 9.033973 6.899424 -8.376960 0
M  V30 47 H 9.796781 5.614500 -9.270658 0
M  V30 48 H 6.767225 -0.375058 -13.297391 0
M  V30 49 H 6.325512 1.011468 -12.295834 0
M  V30 50 H 8.474215 8.552754 -9.584996 0
M  V30 51 H 8.064192 6.396360 -10.730647 0
M  V30 52 H 9.921373 5.008862 -11.387448 0
M  V30 53 H 8.528761 1.497894 -17.314942 0
M  V30 54 H 11.064947 5.912940 -1.011897 0
M  V30 55 H 9.891867 7.190138 -1.184966 0
M  V30 56 H 10.609552 6.390232 -2.592131 0
M  V30 57 H 7.705583 8.695579 -11.720290 0
M  V30 58 H 9.066145 8.416241 -12.783914 0
M  V30 59 H 11.801107 7.371654 -4.164721 0
M  V30 60 H 13.377798 8.096539 -3.985035 0
M  V30 END ATOM
M  V30 BEGIN BOND
M  V30 1 1 2 1
M  V30 2 2 3 2
M  V30 3 2 7 6
M  V30 4 1 8 3
M  V30 5 1 12 3
M  V30 6 2 13 12
M  V30 7 1 14 2
M  V30 8 1 15 4
M  V30 9 1 16 6
M  V30 10 1 17 5
M  V30 11 1 17 16
M  V30 12 2 18 11
M  V30 13 1 19 12
M  V30 14 1 20 5
M  V30 15 1 22 6
M  V30 16 1 22 18
M  V30 17 3 23 21
M  V30 18 1 24 5
M  V30 19 1 25 19
M  V30 20 1 26 10
M  V30 21 1 26 21
M  V30 22 1 26 24
M  V30 23 2 27 18
M  V30 24 1 28 9
M  V30 25 2 28 10
M  V30 26 1 28 14
M  V30 27 2 29 1
M  V30 28 1 29 13
M  V30 29 1 30 13
M  V30 30 1 31 15
M  V30 31 1 32 9
M  V30 32 1 32 24
M  V30 33 1 33 4
M  V30 34 1 33 18
M  V30 35 1 34 1
M  V30 36 1 35 4
M  V30 37 1 36 4
M  V30 38 1 37 9
M  V30 39 1 38 9
M  V30 40 1 39 10
M  V30 41 1 40 14
M  V30 42 1 41 14
M  V30 43 1 42 15
M  V30 44 1 43 15
M  V30 45 1 44 16
M  V30 46 1 45 16
M  V30 47 1 46 17
M  V30 48 1 47 17
M  V30 49 1 48 19
M  V30 50 1 49 19
M  V30 51 1 50 20
M  V30 52 1 24 51 CFG=1
M  V30 53 1 26 52 CFG=1
M  V30 54 1 53 29
M  V30 55 1 54 31
M  V30 56 1 55 31
M  V30 57 1 56 31
M  V30 58 1 57 32
M  V30 59 1 58 32
M  V30 60 1 59 33
M  V30 61 1 60 33
M  V30 END BOND
M  V30 END CTAB
M  END
>  <i_epik_Tot_Q>  (1) 
-1

>  <i_epik_Tot_abs_Q>  (1) 
1

>  <i_i_glide_confnum>  (1) 
3465

>  <i_i_glide_lignum>  (1) 
79

>  <i_i_glide_posenum>  (1) 
234

>  <i_i_glide_rotatable_bonds>  (1) 
13

>  <i_lp_mmshare_version>  (1) 
72125

>  <i_m_source_file_index>  (1) 
50

>  <i_f3d_flags>  (1) 
0

>  <num_sample>  (1) 
100

>  <b_lp_Chiralities_Consistent>  (1) 
1

>  <r_epik_Charging_Adjusted_Penalty>  (1) 
0.026401540153883577

>  <r_epik_Ionization_Penalty>  (1) 
0.013342793293924158

>  <r_epik_Ionization_Penalty_Charging>  (1) 
0.013200770076941797

>  <r_epik_Ionization_Penalty_Neutral>  (1) 
0.00014202321698236043

>  <r_epik_State_Penalty>  (1) 
0.01320077007694178

>  <r_glide_ring_energy>  (1) 
0

>  <r_i_docking_score>  (1) 
-6.9334167971634173

>  <r_i_glide_ecoul>  (1) 
-9.2842547708459371

>  <r_i_glide_eff_state_penalty>  (1) 
0.01320077007694178

>  <r_i_glide_einternal>  (1) 
28.270038441606189

>  <r_i_glide_emodel>  (1) 
-46.266191979364834

>  <r_i_glide_emodel_strain>  (1) 
3.4345418246001493

>  <r_i_glide_energy>  (1) 
-46.431618910949084

>  <r_i_glide_erotb>  (1) 
0.85852740142568074

>  <r_i_glide_esite>  (1) 
-0.30054499061029427

>  <r_i_glide_evdw>  (1) 
-37.147364140103143

>  <r_i_glide_gscore>  (1) 
-6.9466175672403594

>  <r_i_glide_gscore_strain>  (1) 
0

>  <r_i_glide_hbond>  (1) 
-0.16

>  <r_i_glide_ligand_efficiency>  (1) 
-0.21010353930798234

>  <r_i_glide_ligand_efficiency_ln>  (1) 
-1.5419559963782581

>  <r_i_glide_ligand_efficiency_sa>  (1) 
-0.67391431518398104

>  <r_i_glide_lipo>  (1) 
-2.335115373370658

>  <r_i_glide_metal>  (1) 
-0

>  <r_i_glide_rewards>  (1) 
-1.7594781820530394

>  <r_lp_Energy>  (1) 
33.979248999999996

>  <s_epik_Chemistry_Notes>  (1) 
This compound has a N-S or N-O group and may undergo hydrolysis at high or low pH.

>  <s_epik_cmdline>  (1) 
J2VwaWtfcHl0aG9uJywgJy1waHQnLCAnMS4wJywgJy1waCcsICc3LjQnLCAnLXRuJywgJzgnLCAnLW1hJywgJzUwMCcsICctaW1hZScsICc8aW5maWxlLm1hZT4nLCAnLW9tYWUnLCAnPG91dGZpbGUubWFlPic=

>  <s_epik_input>  (1) 
RmMxYyhbQ0gyXUYpYyhGKVtjSF1bY0hdYzFbQ0gyXUMoW0NIMl1bQ0gyXTIpPVtDSF1bQ0BASF0oQyNOKVtDQEhdMk4oW09IXSlbQ0gyXVtDSDJdQyg9TylbTkhdUyg9TykoPU8pW0NIMl1bQ0gyXVtDSDJdW0NIM10=

>  <s_glide_docking_method>  (1) 
confgen

>  <s_i_glide_gridfile>  (1) 
gpcr_drd2_6luq_protein_autoprepared_prepared

>  <s_lp_Force_Field>  (1) 
S-OPLS

>  <s_lp_Variant>  (1) 
DiffSBDD_49-1

>  <s_m_source_file>  (1) 
generated_generic_title2_ligand_DiffSBDD_2026-06-23_prepared.sdf

>  <GenAI_Model>  (1) 
DiffSBDD

>  <Protein>  (1) 
generic_title2

$$$$
DiffSBDD_34
     RDKit          3D

  0  0  0  0  0  0  0  0  0  0999 V3000
M  V30 BEGIN CTAB
M  V30 COUNTS 48 50 0 0 1
M  V30 BEGIN ATOM
M  V30 1 O 5.824234 5.133803 -11.850183 0
M  V30 2 C 11.383218 7.672822 -5.103617 0
M  V30 3 C 12.174468 7.897430 -2.378692 0
M  V30 4 C 6.782248 5.239156 -12.889302 0 CFG=2
M  V30 5 C 6.200880 2.918219 -12.599337 0
M  V30 6 C 9.974164 6.333522 -8.236035 0
M  V30 7 C 6.675457 3.908502 -13.635824 0
M  V30 8 C 5.823580 3.791252 -11.385323 0
M  V30 9 C 10.669575 7.033780 -9.244423 0
M  V30 10 N 10.183452 6.540783 -6.902762 0
M  V30 11 C 11.711176 10.214069 -5.383656 0
M  V30 12 C 12.153867 9.037308 -3.191567 0
M  V30 13 C 11.828515 8.223440 -7.530132 0
M  V30 14 C 11.098380 7.499351 -6.561278 0
M  V30 15 C 9.247977 5.597413 -13.460842 0
M  V30 16 O 9.375378 3.999160 -11.126987 0
M  V30 17 C 11.616498 7.975315 -8.872863 0
M  V30 18 C 8.938793 5.265624 -8.615422 0
M  V30 19 C 11.757446 8.945381 -4.543863 0
M  V30 20 C 8.678927 5.006237 -11.069246 0
M  V30 21 C 8.170571 5.679747 -12.360149 0 CFG=2
M  V30 22 C 11.775427 6.659193 -2.898916 0
M  V30 23 C 11.375088 6.548476 -4.247477 0
M  V30 24 N 8.347450 5.606601 -9.912247 0
M  V30 25 Cl 12.546510 8.790000 -10.051371 0
M  V30 26 H 12.482419 7.976629 -1.346912 0
M  V30 27 H 6.438499 6.030577 -13.556172 0
M  V30 28 H 7.000545 2.211769 -12.385037 0
M  V30 29 H 5.375428 2.338976 -13.003540 0
M  V30 30 H 5.907600 4.001341 -14.403460 0
M  V30 31 H 7.591047 3.595021 -14.134548 0
M  V30 32 H 6.533222 3.651807 -10.576391 0
M  V30 33 H 4.875727 3.590236 -10.920320 0
M  V30 34 H 10.492614 6.827763 -10.287210 0
M  V30 35 H 12.693560 10.431802 -5.795366 0
M  V30 36 H 10.971447 10.169727 -6.180110 0
M  V30 37 H 11.375990 11.058065 -4.784808 0
M  V30 38 H 12.440524 9.990246 -2.778869 0
M  V30 39 H 12.582994 8.927220 -7.237166 0
M  V30 40 H 10.127643 6.179519 -13.183775 0
M  V30 41 H 9.583259 4.575116 -13.644078 0
M  V30 42 H 8.869289 5.989221 -14.404818 0
M  V30 43 H 9.422960 4.290332 -8.613127 0
M  V30 44 H 8.147509 5.239368 -7.865624 0
M  V30 45 H 8.063905 6.738126 -12.114579 0
M  V30 46 H 11.780173 5.783005 -2.266443 0
M  V30 47 H 11.095804 5.589225 -4.639742 0
M  V30 48 H 7.749909 6.438405 -9.942802 0
M  V30 END ATOM
M  V30 BEGIN BOND
M  V30 1 1 4 1
M  V30 2 1 7 4
M  V30 3 1 7 5
M  V30 4 1 8 1
M  V30 5 1 8 5
M  V30 6 1 9 6
M  V30 7 2 10 6
M  V30 8 1 12 3
M  V30 9 1 14 2
M  V30 10 1 14 10
M  V30 11 2 14 13
M  V30 12 2 17 9
M  V30 13 1 17 13
M  V30 14 1 18 6
M  V30 15 1 19 2
M  V30 16 1 19 11
M  V30 17 2 19 12
M  V30 18 2 20 16
M  V30 19 1 21 4
M  V30 20 1 21 15
M  V30 21 1 21 20
M  V30 22 2 22 3
M  V30 23 2 23 2
M  V30 24 1 23 22
M  V30 25 1 24 18
M  V30 26 1 24 20
M  V30 27 1 25 17
M  V30 28 1 26 3
M  V30 29 1 4 27 CFG=3
M  V30 30 1 28 5
M  V30 31 1 29 5
M  V30 32 1 30 7
M  V30 33 1 31 7
M  V30 34 1 32 8
M  V30 35 1 33 8
M  V30 36 1 34 9
M  V30 37 1 35 11
M  V30 38 1 36 11
M  V30 39 1 37 11
M  V30 40 1 38 12
M  V30 41 1 39 13
M  V30 42 1 40 15
M  V30 43 1 41 15
M  V30 44 1 42 15
M  V30 45 1 43 18
M  V30 46 1 44 18
M  V30 47 1 21 45 CFG=1
M  V30 48 1 46 22
M  V30 49 1 47 23
M  V30 50 1 48 24
M  V30 END BOND
M  V30 END CTAB
M  END
>  <i_epik_Tot_Q>  (1) 
0

>  <i_epik_Tot_abs_Q>  (1) 
0

>  <i_i_glide_confnum>  (1) 
91

>  <i_i_glide_lignum>  (1) 
57

>  <i_i_glide_posenum>  (1) 
288

>  <i_i_glide_rotatable_bonds>  (1) 
6

>  <i_lp_mmshare_version>  (1) 
72125

>  <i_m_source_file_index>  (1) 
35

>  <i_f3d_flags>  (1) 
0

>  <num_sample>  (1) 
100

>  <b_lp_Chiralities_Consistent>  (1) 
1

>  <r_epik_Charging_Adjusted_Penalty>  (1) 
0

>  <r_epik_Ionization_Penalty>  (1) 
0.00017143064018834461

>  <r_epik_Ionization_Penalty_Charging>  (1) 
0

>  <r_epik_Ionization_Penalty_Neutral>  (1) 
0.00017143064018834461

>  <r_epik_State_Penalty>  (1) 
-0

>  <r_glide_ring_energy>  (1) 
1.2359945553335399

>  <r_i_docking_score>  (1) 
-6.9261945276029717

>  <r_i_glide_ecoul>  (1) 
-2.2934360519112431

>  <r_i_glide_eff_state_penalty>  (1) 
-0

>  <r_i_glide_einternal>  (1) 
39.468939665979043

>  <r_i_glide_emodel>  (1) 
-29.553869062114916

>  <r_i_glide_emodel_strain>  (1) 
1.7368226095563912

>  <r_i_glide_energy>  (1) 
-37.838454145371728

>  <r_i_glide_erotb>  (1) 
0.74388536090720081

>  <r_i_glide_esite>  (1) 
-0.10000000000000001

>  <r_i_glide_evdw>  (1) 
-35.545018093460484

>  <r_i_glide_gscore>  (1) 
-6.9261945276029717

>  <r_i_glide_gscore_strain>  (1) 
0

>  <r_i_glide_hbond>  (1) 
-0.16

>  <r_i_glide_ligand_efficiency>  (1) 
-0.27704778110411887

>  <r_i_glide_ligand_efficiency_ln>  (1) 
-1.6417156643427278

>  <r_i_glide_ligand_efficiency_sa>  (1) 
-0.81009262628095891

>  <r_i_glide_lipo>  (1) 
-3.3735527011515618

>  <r_i_glide_metal>  (1) 
-0

>  <r_i_glide_rewards>  (1) 
-1.9152608748988997

>  <r_lp_Energy>  (1) 
21.087142

>  <r_lp_tautomer_probability>  (1) 
1

>  <s_epik_cmdline>  (1) 
J2VwaWtfcHl0aG9uJywgJy1waHQnLCAnMS4wJywgJy1waCcsICc3LjQnLCAnLXRuJywgJzgnLCAnLW1hJywgJzUwMCcsICctaW1hZScsICc8aW5maWxlLm1hZT4nLCAnLW9tYWUnLCAnPG91dGZpbGUubWFlPic=

>  <s_epik_input>  (1) 
W0NIMl0xW0NIMl1bQ0gyXU9bQ0BIXTFbQ0BIXShbQ0gzXSlDKD1PKVtOSF1bQ0gyXWMyW2NIXWMoQ2wpW2NIXWMobjIpLWMzYyhbQ0gzXSlbY0hdW2NIXVtjSF1bY0hdMw==

>  <s_glide_docking_method>  (1) 
confgen

>  <s_i_glide_gridfile>  (1) 
gpcr_drd2_6luq_protein_autoprepared_prepared

>  <s_lp_Force_Field>  (1) 
S-OPLS

>  <s_lp_Variant>  (1) 
DiffSBDD_34-1

>  <s_m_source_file>  (1) 
generated_generic_title2_ligand_DiffSBDD_2026-06-23_prepared.sdf

>  <GenAI_Model>  (1) 
DiffSBDD

>  <Protein>  (1) 
generic_title2

$$$$
DiffSBDD_52
     RDKit          3D

  0  0  0  0  0  0  0  0  0  0999 V3000
M  V30 BEGIN CTAB
M  V30 COUNTS 51 54 0 0 1
M  V30 BEGIN ATOM
M  V30 1 C 11.985439 9.390945 -4.314699 0
M  V30 2 F 12.767790 8.346144 -2.234309 0
M  V30 3 C 6.864488 6.878300 -12.366594 0 CFG=1
M  V30 4 C 6.533411 4.150430 -12.797823 0
M  V30 5 C 6.968291 4.548905 -11.388942 0 CFG=2
M  V30 6 C 11.775414 6.943415 -3.774695 0
M  V30 7 C 9.687245 6.533576 -7.649605 0
M  V30 8 C 6.615615 4.774844 -15.296606 0
M  V30 9 C 12.175409 8.177457 -3.427447 0
M  V30 10 N 7.069717 5.990226 -11.185027 0 CFG=1 CHG=1
M  V30 11 C 10.677102 7.856696 -5.917598 0 CFG=2
M  V30 12 O 7.518175 8.068866 -11.985025 0
M  V30 13 C 6.986423 6.057603 -16.026272 0
M  V30 14 O 10.603907 7.560635 -7.308012 0
M  V30 15 C 11.659513 9.032466 -5.777451 0
M  V30 16 C 7.292390 4.876141 -13.926685 0 CFG=1
M  V30 17 C 6.886417 7.093775 -14.913620 0
M  V30 18 C 9.575246 6.430664 -9.173902 0
M  V30 19 C 11.103930 6.614542 -5.092914 0
M  V30 20 C 8.287404 5.208116 -11.024426 0 CFG=1
M  V30 21 C 8.764843 5.192349 -9.583666 0
M  V30 22 C 7.477239 6.383703 -13.684454 0 CFG=1
M  V30 23 H 11.178872 9.990270 -3.891060 0
M  V30 24 H 12.892598 9.990225 -4.271852 0
M  V30 25 H 5.793422 7.062448 -12.462115 0
M  V30 26 H 5.463958 4.350428 -12.878472 0
M  V30 27 H 6.649820 3.071888 -12.909521 0
M  V30 28 H 6.379023 4.116562 -10.581501 0
M  V30 29 H 11.938766 6.117877 -3.096709 0
M  V30 30 H 8.706871 6.736624 -7.214426 0
M  V30 31 H 10.035339 5.581769 -7.252067 0
M  V30 32 H 5.537291 4.790228 -15.162676 0
M  V30 33 H 6.896245 3.873552 -15.842418 0
M  V30 34 H 9.694669 8.191746 -5.585028 0
M  V30 35 H 7.375408 8.196107 -11.042912 0
M  V30 36 H 6.326503 6.273930 -16.866519 0
M  V30 37 H 8.007449 5.990223 -16.403439 0
M  V30 38 H 12.575410 8.790227 -6.309281 0
M  V30 39 H 11.259242 9.910361 -6.285658 0
M  V30 40 H 8.286954 4.433138 -14.006649 0
M  V30 41 H 5.833378 7.325719 -14.748827 0
M  V30 42 H 7.375410 8.038483 -15.143820 0
M  V30 43 H 10.569247 6.390229 -9.618681 0
M  V30 44 H 9.109661 7.339692 -9.551940 0
M  V30 45 H 10.234180 5.990230 -4.887525 0
M  V30 46 H 11.805033 6.003665 -5.662185 0
M  V30 47 H 9.034310 5.401867 -11.790417 0
M  V30 48 H 7.903440 5.076383 -8.922167 0
M  V30 49 H 9.385909 4.310627 -9.437281 0
M  V30 50 H 8.551810 6.567359 -13.664860 0
M  V30 51 H 6.744301 6.350237 -10.289869 0
M  V30 END ATOM
M  V30 BEGIN BOND
M  V30 1 1 5 4
M  V30 2 1 9 1
M  V30 3 1 9 2
M  V30 4 2 9 6
M  V30 5 1 10 3
M  V30 6 1 10 5
M  V30 7 1 12 3
M  V30 8 1 13 8
M  V30 9 1 14 7
M  V30 10 1 14 11
M  V30 11 1 15 1
M  V30 12 1 15 11
M  V30 13 1 16 4
M  V30 14 1 16 8
M  V30 15 1 17 13
M  V30 16 1 18 7
M  V30 17 1 19 6
M  V30 18 1 19 11
M  V30 19 1 20 5
M  V30 20 1 20 10
M  V30 21 1 21 18
M  V30 22 1 21 20
M  V30 23 1 22 3
M  V30 24 1 22 16
M  V30 25 1 22 17
M  V30 26 1 23 1
M  V30 27 1 24 1
M  V30 28 1 3 25 CFG=3
M  V30 29 1 26 4
M  V30 30 1 27 4
M  V30 31 1 5 28 CFG=1
M  V30 32 1 29 6
M  V30 33 1 30 7
M  V30 34 1 31 7
M  V30 35 1 32 8
M  V30 36 1 33 8
M  V30 37 1 11 34 CFG=1
M  V30 38 1 35 12
M  V30 39 1 36 13
M  V30 40 1 37 13
M  V30 41 1 38 15
M  V30 42 1 39 15
M  V30 43 1 16 40 CFG=3
M  V30 44 1 41 17
M  V30 45 1 42 17
M  V30 46 1 43 18
M  V30 47 1 44 18
M  V30 48 1 45 19
M  V30 49 1 46 19
M  V30 50 1 20 47 CFG=3
M  V30 51 1 48 21
M  V30 52 1 49 21
M  V30 53 1 22 50 CFG=1
M  V30 54 1 10 51 CFG=1
M  V30 END BOND
M  V30 END CTAB
M  END
>  <i_epik_Tot_Q>  (1) 
1

>  <i_epik_Tot_abs_Q>  (1) 
1

>  <i_i_glide_confnum>  (1) 
117

>  <i_i_glide_lignum>  (1) 
84

>  <i_i_glide_posenum>  (1) 
397

>  <i_i_glide_rotatable_bonds>  (1) 
6

>  <i_lp_mmshare_version>  (1) 
72125

>  <i_m_source_file_index>  (1) 
53

>  <i_f3d_flags>  (1) 
0

>  <num_sample>  (1) 
100

>  <b_lp_Chiralities_Consistent>  (1) 
1

>  <r_epik_Charging_Adjusted_Penalty>  (1) 
0.54296395038273226

>  <r_epik_Ionization_Penalty>  (1) 
0.53316988730295212

>  <r_epik_Ionization_Penalty_Charging>  (1) 
0.022916544562111445

>  <r_epik_Ionization_Penalty_Neutral>  (1) 
0.51025334274084067

>  <r_epik_State_Penalty>  (1) 
0.52004740582062081

>  <r_glide_ring_energy>  (1) 
0

>  <r_i_docking_score>  (1) 
-6.9257919950409379

>  <r_i_glide_ecoul>  (1) 
-10.420313584744207

>  <r_i_glide_eff_state_penalty>  (1) 
0.52004740582062081

>  <r_i_glide_einternal>  (1) 
4.717116775049667

>  <r_i_glide_emodel>  (1) 
-57.192374434293981

>  <r_i_glide_emodel_strain>  (1) 
0.25752775090696645

>  <r_i_glide_energy>  (1) 
-38.858798517602878

>  <r_i_glide_erotb>  (1) 
0.76914675799504084

>  <r_i_glide_esite>  (1) 
-0.16802061588731074

>  <r_i_glide_evdw>  (1) 
-28.438484932858675

>  <r_i_glide_gscore>  (1) 
-7.4458394008615585

>  <r_i_glide_gscore_strain>  (1) 
0

>  <r_i_glide_hbond>  (1) 
-0.30592081788971215

>  <r_i_glide_ligand_efficiency>  (1) 
-0.31480872704731538

>  <r_i_glide_ligand_efficiency_ln>  (1) 
-1.6929161879891006

>  <r_i_glide_ligand_efficiency_sa>  (1) 
-0.88210643482013407

>  <r_i_glide_lipo>  (1) 
-2.3786470445287544

>  <r_i_glide_metal>  (1) 
-0

>  <r_i_glide_rewards>  (1) 
-2.3774263961962574

>  <r_lp_Energy>  (1) 
22.961214999999999

>  <s_epik_Chemistry_Notes>  (1) 
This compound contains an acetal/aminal-like group ( X-CH(R)-Y where X, Y are N, S, or O) that may be acid/base labile, releasing an aldehyde.

>  <s_epik_cmdline>  (1) 
J2VwaWtfcHl0aG9uJywgJy1waHQnLCAnMS4wJywgJy1waCcsICc3LjQnLCAnLXRuJywgJzgnLCAnLW1hJywgJzUwMCcsICctaW1hZScsICc8aW5maWxlLm1hZT4nLCAnLW9tYWUnLCAnPG91dGZpbGUubWFlPic=

>  <s_epik_input>  (1) 
RkMxPVtDSF1bQ0gyXVtDQEBIXShbQ0gyXVtDSDJdMSlPW0NIMl1bQ0gyXVtDSDJdW0NAQEhdMk4oW0NASF0yMylbQ0BASF0oW09IXSlbQ0BIXTRbQ0BASF0oW0NIMl0zKVtDSDJdW0NIMl1bQ0gyXTQ=

>  <s_glide_docking_method>  (1) 
confgen

>  <s_i_glide_gridfile>  (1) 
gpcr_drd2_6luq_protein_autoprepared_prepared

>  <s_lp_Force_Field>  (1) 
S-OPLS

>  <s_lp_Variant>  (1) 
DiffSBDD_52-3

>  <s_m_source_file>  (1) 
generated_generic_title2_ligand_DiffSBDD_2026-06-23_prepared.sdf

>  <GenAI_Model>  (1) 
DiffSBDD

>  <Protein>  (1) 
generic_title2

$$$$
DiffSBDD_76
     RDKit          3D

  0  0  0  0  0  0  0  0  0  0999 V3000
M  V30 BEGIN CTAB
M  V30 COUNTS 54 57 0 0 1
M  V30 BEGIN ATOM
M  V30 1 N 8.975289 6.099027 -8.849835 0 CHG=1
M  V30 2 N 7.159808 2.460383 -16.883100 0
M  V30 3 C 10.216866 7.293291 -7.003064 0 CFG=2
M  V30 4 C 7.511050 2.794970 -15.505146 0
M  V30 5 F 5.920563 4.447743 -10.415351 0
M  V30 6 C 6.616776 1.370912 -17.390949 0
M  V30 7 C 10.858922 7.347579 -5.596495 0
M  V30 8 C 9.513943 5.996949 -7.459908 0
M  V30 9 C 8.970410 4.712124 -13.243356 0
M  V30 10 C 8.584511 4.792691 -9.415019 0
M  V30 11 C 12.084101 7.433608 -3.046320 0
M  V30 12 N 7.398690 3.327448 -17.880608 0
M  V30 13 C 12.343936 8.441015 -3.984919 0
M  V30 14 C 11.206676 6.390350 -3.375711 0
M  V30 15 C 12.121937 9.369932 -6.264318 0
M  V30 16 N 6.288338 0.317207 -16.551531 0
M  V30 17 C 11.797705 9.026378 -7.733854 0
M  V30 18 C 10.576571 6.371000 -4.642800 0
M  V30 19 C 7.643436 4.485154 -13.656501 0
M  V30 20 C 11.356465 7.601702 -7.965856 0
M  V30 21 O 12.700923 10.390224 -5.985192 0
M  V30 22 C 6.611837 4.416208 -12.698833 0
M  V30 23 N 6.427449 1.383645 -18.690374 0
M  V30 24 C 7.330633 4.286179 -15.128838 0
M  V30 25 C 9.271520 4.840257 -11.874062 0
M  V30 26 C 6.910113 4.543480 -11.327287 0
M  V30 27 C 8.245117 4.742571 -10.907722 0
M  V30 28 C 6.930943 2.647781 -18.949950 0
M  V30 29 C 11.752482 8.381893 -5.268911 0
M  V30 30 H 9.672124 6.507212 -9.452781 0
M  V30 31 H 9.468189 8.089303 -7.050284 0
M  V30 32 H 6.901457 2.189619 -14.832303 0
M  V30 33 H 8.545003 2.485131 -15.349216 0
M  V30 34 H 8.689825 5.744057 -6.791310 0
M  V30 35 H 10.244670 5.190126 -7.424031 0
M  V30 36 H 9.763869 4.768205 -13.977619 0
M  V30 37 H 7.759265 4.391301 -8.825744 0
M  V30 38 H 9.429398 4.116005 -9.282569 0
M  V30 39 H 12.555556 7.461746 -2.075226 0
M  V30 40 H 13.031070 9.238944 -3.738280 0
M  V30 41 H 10.993580 5.617631 -2.651930 0
M  V30 42 H 5.875387 -0.533218 -16.910327 0
M  V30 43 H 6.468955 0.353611 -15.560491 0
M  V30 44 H 10.972897 9.590245 -8.118635 0
M  V30 45 H 12.669990 9.210554 -8.357895 0
M  V30 46 H 9.895671 5.590434 -4.875904 0
M  V30 47 H 12.175262 6.910586 -7.784318 0
M  V30 48 H 11.077652 7.505779 -9.014360 0
M  V30 49 H 5.593094 4.244530 -13.014263 0
M  V30 50 H 7.987745 4.918112 -15.727256 0
M  V30 51 H 6.312046 4.613213 -15.334530 0
M  V30 52 H 10.289374 4.990909 -11.570950 0
M  V30 53 H 6.954172 3.072747 -19.943972 0
M  V30 54 H 8.153816 6.711166 -8.862505 0
M  V30 END ATOM
M  V30 BEGIN BOND
M  V30 1 1 4 2
M  V30 2 1 6 2
M  V30 3 1 7 3
M  V30 4 1 8 1
M  V30 5 1 8 3
M  V30 6 1 10 1
M  V30 7 1 12 2
M  V30 8 1 13 11
M  V30 9 2 14 11
M  V30 10 1 16 6
M  V30 11 1 17 15
M  V30 12 2 18 7
M  V30 13 1 18 14
M  V30 14 1 19 9
M  V30 15 1 20 3
M  V30 16 1 20 17
M  V30 17 2 21 15
M  V30 18 2 22 19
M  V30 19 2 23 6
M  V30 20 1 24 4
M  V30 21 1 24 19
M  V30 22 2 25 9
M  V30 23 1 26 5
M  V30 24 1 26 22
M  V30 25 1 27 10
M  V30 26 1 27 25
M  V30 27 2 27 26
M  V30 28 2 28 12
M  V30 29 1 28 23
M  V30 30 1 29 7
M  V30 31 2 29 13
M  V30 32 1 29 15
M  V30 33 1 30 1
M  V30 34 1 3 31 CFG=1
M  V30 35 1 32 4
M  V30 36 1 33 4
M  V30 37 1 34 8
M  V30 38 1 35 8
M  V30 39 1 36 9
M  V30 40 1 37 10
M  V30 41 1 38 10
M  V30 42 1 39 11
M  V30 43 1 40 13
M  V30 44 1 41 14
M  V30 45 1 42 16
M  V30 46 1 43 16
M  V30 47 1 44 17
M  V30 48 1 45 17
M  V30 49 1 46 18
M  V30 50 1 47 20
M  V30 51 1 48 20
M  V30 52 1 49 22
M  V30 53 1 50 24
M  V30 54 1 51 24
M  V30 55 1 52 25
M  V30 56 1 53 28
M  V30 57 1 54 1
M  V30 END BOND
M  V30 END CTAB
M  END
>  <i_epik_Tot_Q>  (1) 
1

>  <i_epik_Tot_abs_Q>  (1) 
1

>  <i_i_glide_confnum>  (1) 
172

>  <i_i_glide_lignum>  (1) 
124

>  <i_i_glide_posenum>  (1) 
169

>  <i_i_glide_rotatable_bonds>  (1) 
7

>  <i_lp_mmshare_version>  (1) 
72125

>  <i_m_source_file_index>  (1) 
77

>  <i_f3d_flags>  (1) 
0

>  <num_sample>  (1) 
100

>  <b_lp_Chiralities_Consistent>  (1) 
1

>  <r_epik_Charging_Adjusted_Penalty>  (1) 
0.13114515656656739

>  <r_epik_Ionization_Penalty>  (1) 
0.066343571056588849

>  <r_epik_Ionization_Penalty_Charging>  (1) 
0.065572578283283764

>  <r_epik_Ionization_Penalty_Neutral>  (1) 
0.00077099277330508725

>  <r_epik_State_Penalty>  (1) 
0.065572578283283625

>  <r_glide_ring_energy>  (1) 
0

>  <r_i_docking_score>  (1) 
-6.9189658876766673

>  <r_i_glide_ecoul>  (1) 
-5.7298628661092534

>  <r_i_glide_eff_state_penalty>  (1) 
0.065572578283283625

>  <r_i_glide_einternal>  (1) 
3.2129772517250892

>  <r_i_glide_emodel>  (1) 
-42.878236209054762

>  <r_i_glide_emodel_strain>  (1) 
0.74990717968351106

>  <r_i_glide_energy>  (1) 
-23.541268079657325

>  <r_i_glide_erotb>  (1) 
0.52753328688631251

>  <r_i_glide_esite>  (1) 
-0.1517039716008117

>  <r_i_glide_evdw>  (1) 
-17.81140521354807

>  <r_i_glide_gscore>  (1) 
-6.9845384659599512

>  <r_i_glide_gscore_strain>  (1) 
0

>  <r_i_glide_hbond>  (1) 
-0.20000000000000001

>  <r_i_glide_ligand_efficiency>  (1) 
-0.23858503060954026

>  <r_i_glide_ligand_efficiency_ln>  (1) 
-1.5842677384412713

>  <r_i_glide_ligand_efficiency_sa>  (1) 
-0.73300880389846357

>  <r_i_glide_lipo>  (1) 
-2.5406898549059052

>  <r_i_glide_metal>  (1) 
-0

>  <r_i_glide_rewards>  (1) 
-2.8696282357457532

>  <r_lp_Energy>  (1) 
27.364193

>  <r_lp_tautomer_probability>  (1) 
0.99994999147066566

>  <s_epik_cmdline>  (1) 
J2VwaWtfcHl0aG9uJywgJy1waHQnLCAnMS4wJywgJy1waCcsICc3LjQnLCAnLXRuJywgJzgnLCAnLW1hJywgJzUwMCcsICctaW1hZScsICc8aW5maWxlLm1hZT4nLCAnLW9tYWUnLCAnPG91dGZpbGUubWFlPic=

>  <s_epik_input>  (1) 
W2NIXTFbY0hdW2NIXVtjSF1jKGMxMilDKD1PKVtDSDJdW0NIMl1bQ0BIXTJbQ0gyXVtOSF1bQ0gyXWMoYyhGKVtjSF0zKVtjSF1bY0hdYzNbQ0gyXVtDSDJdbjRjKFtOSDJdKW5bY0hdbjQ=

>  <s_glide_docking_method>  (1) 
confgen

>  <s_i_glide_gridfile>  (1) 
gpcr_drd2_6luq_protein_autoprepared_prepared

>  <s_lp_Force_Field>  (1) 
S-OPLS

>  <s_lp_Variant>  (1) 
DiffSBDD_76-1

>  <s_m_source_file>  (1) 
generated_generic_title2_ligand_DiffSBDD_2026-06-23_prepared.sdf

>  <GenAI_Model>  (1) 
DiffSBDD

>  <Protein>  (1) 
generic_title2

$$$$
DiffSBDD_10
     RDKit          3D

  0  0  0  0  0  0  0  0  0  0999 V3000
M  V30 BEGIN CTAB
M  V30 COUNTS 56 60 0 0 1
M  V30 BEGIN ATOM
M  V30 1 S 9.720086 7.517129 -11.346264 0
M  V30 2 C 11.554019 8.308319 -9.382952 0
M  V30 3 C 7.971290 5.419024 -11.662998 0 CFG=1
M  V30 4 C 10.712554 7.452158 -6.188679 0
M  V30 5 C 6.041061 3.608201 -11.452469 0
M  V30 6 C 11.375410 7.644164 -4.817807 0
M  V30 7 O 8.975412 8.599562 -12.000349 0
M  V30 8 C 5.238622 4.538194 -12.370444 0
M  V30 9 C 12.545572 9.044767 -3.177655 0
M  V30 10 C 5.624946 6.086510 -14.466968 0
M  V30 11 C 6.906531 6.791223 -14.922844 0
M  V30 12 N 8.575411 6.390227 -10.766806 0
M  V30 13 C 8.612037 4.066030 -11.779754 0
M  V30 14 C 6.172661 5.152498 -13.413089 0 CFG=1
M  V30 15 O 10.807883 6.790230 -12.017185 0
M  V30 16 C 11.957271 8.886404 -4.444778 0
M  V30 17 N 10.243235 8.098186 -9.818223 0
M  V30 18 C 7.340634 4.236468 -10.958078 0 CFG=1
M  V30 19 C 11.416833 6.571690 -3.889493 0
M  V30 20 C 10.932810 6.119149 -6.889265 0
M  V30 21 C 12.572080 7.977096 -2.269537 0
M  V30 22 O 12.533399 7.990232 -10.051077 0
M  V30 23 O 7.840026 6.602403 -13.859311 0
M  V30 24 C 10.538056 8.728428 -7.012301 0
M  V30 25 C 12.012048 6.741663 -2.624598 0
M  V30 26 C 11.696355 8.972821 -8.009207 0
M  V30 27 C 9.581004 6.447932 -6.317753 0
M  V30 28 C 7.142559 6.101866 -12.735941 0 CFG=2
M  V30 29 H 6.271947 2.685509 -11.985026 0
M  V30 30 H 5.436126 3.330324 -10.588593 0
M  V30 31 H 4.421495 3.990236 -12.841730 0
M  V30 32 H 4.814437 5.325628 -11.747973 0
M  V30 33 H 12.975414 9.990225 -2.902561 0
M  V30 34 H 5.090210 5.590239 -15.275808 0
M  V30 35 H 4.975410 6.825516 -14.005082 0
M  V30 36 H 7.310099 6.342373 -15.830509 0
M  V30 37 H 6.737872 7.852249 -15.110614 0
M  V30 38 H 7.852669 6.894761 -10.217447 0
M  V30 39 H 8.544601 3.553669 -12.736390 0
M  V30 40 H 9.540422 3.901480 -11.237094 0
M  V30 41 H 6.711538 4.350508 -13.921224 0
M  V30 42 H 11.953835 9.718905 -5.127165 0
M  V30 43 H 9.451034 8.390208 -9.246683 0
M  V30 44 H 7.451166 4.216137 -9.874967 0
M  V30 45 H 10.987031 5.616347 -4.147562 0
M  V30 46 H 10.969775 6.061231 -7.972553 0
M  V30 47 H 11.583310 5.410541 -6.385020 0
M  V30 48 H 13.023533 8.106720 -1.297091 0
M  V30 49 H 9.581092 8.675247 -7.528811 0
M  V30 50 H 10.364389 9.590221 -6.374216 0
M  V30 51 H 12.033992 5.918327 -1.925050 0
M  V30 52 H 11.775410 10.031366 -8.210351 0
M  V30 53 H 12.648958 8.683135 -7.564017 0
M  V30 54 H 9.241035 5.990227 -5.398745 0
M  V30 55 H 8.789699 6.630077 -7.042469 0
M  V30 56 H 6.595221 6.925950 -12.269908 0
M  V30 END ATOM
M  V30 BEGIN BOND
M  V30 1 1 6 4
M  V30 2 2 7 1
M  V30 3 1 8 5
M  V30 4 1 11 10
M  V30 5 1 12 1
M  V30 6 1 3 12 CFG=1
M  V30 7 1 13 3
M  V30 8 1 14 8
M  V30 9 1 14 10
M  V30 10 2 15 1
M  V30 11 2 16 6
M  V30 12 1 16 9
M  V30 13 1 17 1
M  V30 14 1 17 2
M  V30 15 1 18 3
M  V30 16 1 18 5
M  V30 17 1 18 13
M  V30 18 1 19 6
M  V30 19 1 20 4
M  V30 20 2 21 9
M  V30 21 2 22 2
M  V30 22 1 23 11
M  V30 23 1 24 4
M  V30 24 2 25 19
M  V30 25 1 25 21
M  V30 26 1 26 2
M  V30 27 1 26 24
M  V30 28 1 27 4
M  V30 29 1 27 20
M  V30 30 1 28 3
M  V30 31 1 28 14
M  V30 32 1 28 23
M  V30 33 1 29 5
M  V30 34 1 30 5
M  V30 35 1 31 8
M  V30 36 1 32 8
M  V30 37 1 33 9
M  V30 38 1 34 10
M  V30 39 1 35 10
M  V30 40 1 36 11
M  V30 41 1 37 11
M  V30 42 1 38 12
M  V30 43 1 39 13
M  V30 44 1 40 13
M  V30 45 1 14 41 CFG=3
M  V30 46 1 42 16
M  V30 47 1 43 17
M  V30 48 1 18 44 CFG=1
M  V30 49 1 45 19
M  V30 50 1 46 20
M  V30 51 1 47 20
M  V30 52 1 48 21
M  V30 53 1 49 24
M  V30 54 1 50 24
M  V30 55 1 51 25
M  V30 56 1 52 26
M  V30 57 1 53 26
M  V30 58 1 54 27
M  V30 59 1 55 27
M  V30 60 1 28 56 CFG=1
M  V30 END BOND
M  V30 END CTAB
M  END
>  <i_epik_Tot_Q>  (1) 
0

>  <i_epik_Tot_abs_Q>  (1) 
0

>  <i_i_glide_confnum>  (1) 
170

>  <i_i_glide_lignum>  (1) 
20

>  <i_i_glide_posenum>  (1) 
375

>  <i_i_glide_rotatable_bonds>  (1) 
8

>  <i_lp_mmshare_version>  (1) 
72125

>  <i_m_source_file_index>  (1) 
11

>  <i_f3d_flags>  (1) 
0

>  <num_sample>  (1) 
100

>  <b_lp_Chiralities_Consistent>  (1) 
1

>  <r_epik_Charging_Adjusted_Penalty>  (1) 
1.0976853204972508

>  <r_epik_Ionization_Penalty>  (1) 
2.0664492353545092

>  <r_epik_Ionization_Penalty_Charging>  (1) 
0

>  <r_epik_Ionization_Penalty_Neutral>  (1) 
2.0664492353545092

>  <r_epik_State_Penalty>  (1) 
1.0976853204972508

>  <r_glide_ring_energy>  (1) 
0

>  <r_i_docking_score>  (1) 
-6.9053163451053816

>  <r_i_glide_ecoul>  (1) 
-8.5690672337521949

>  <r_i_glide_eff_state_penalty>  (1) 
1.0976853204972508

>  <r_i_glide_einternal>  (1) 
9.8486333462353546

>  <r_i_glide_emodel>  (1) 
-62.043028126219774

>  <r_i_glide_emodel_strain>  (1) 
0.92627108152009896

>  <r_i_glide_energy>  (1) 
-46.988198299702844

>  <r_i_glide_erotb>  (1) 
0.84027593632591602

>  <r_i_glide_esite>  (1) 
-0.2664152723559382

>  <r_i_glide_evdw>  (1) 
-38.419131065950651

>  <r_i_glide_gscore>  (1) 
-8.0030016656026319

>  <r_i_glide_gscore_strain>  (1) 
0

>  <r_i_glide_hbond>  (1) 
-0.16

>  <r_i_glide_ligand_efficiency>  (1) 
-0.24661844089662077

>  <r_i_glide_ligand_efficiency_ln>  (1) 
-1.5939497613482043

>  <r_i_glide_ligand_efficiency_sa>  (1) 
-0.74887883788784859

>  <r_i_glide_lipo>  (1) 
-3.280567814292715

>  <r_i_glide_metal>  (1) 
-0

>  <r_i_glide_rewards>  (1) 
-1.9299778769195324

>  <r_lp_Energy>  (1) 
1.11948

>  <s_epik_cmdline>  (1) 
J2VwaWtfcHl0aG9uJywgJy1waHQnLCAnMS4wJywgJy1waCcsICc3LjQnLCAnLXRuJywgJzgnLCAnLW1hJywgJzUwMCcsICctaW1hZScsICc8aW5maWxlLm1hZT4nLCAnLW9tYWUnLCAnPG91dGZpbGUubWFlPic=

>  <s_epik_input>  (1) 
W0NIMl0xW0NIMl1PW0NASF0yW0NASF0xW0NIMl1bQ0gyXVtDQEBIXShbQ0gyXTMpW0NAXTIzW05IXVMoPU8pKD1PKVtOSF1DKD1PKVtDSDJdW0NIMl1DNChbQ0gyXVtDSDJdNCljNVtjSF1bY0hdW2NIXVtjSF1bY0hdNQ==

>  <s_glide_docking_method>  (1) 
confgen

>  <s_i_glide_gridfile>  (1) 
gpcr_drd2_6luq_protein_autoprepared_prepared

>  <s_lp_Force_Field>  (1) 
S-OPLS

>  <s_lp_Variant>  (1) 
DiffSBDD_10-3

>  <s_m_source_file>  (1) 
generated_generic_title2_ligand_DiffSBDD_2026-06-23_prepared.sdf

>  <GenAI_Model>  (1) 
DiffSBDD

>  <Protein>  (1) 
generic_title2

$$$$
DiffSBDD_44
     RDKit          3D

  0  0  0  0  0  0  0  0  0  0999 V3000
M  V30 BEGIN CTAB
M  V30 COUNTS 46 48 0 0 1
M  V30 BEGIN ATOM
M  V30 1 C 6.531813 4.258513 -12.514163 0 CFG=2
M  V30 2 C 10.450798 6.683252 -7.353915 0
M  V30 3 C 11.353933 7.810356 -5.294236 0
M  V30 4 C 7.116068 3.379142 -13.540570 0 CFG=1
M  V30 5 O 10.175729 7.801039 -9.438498 0
M  V30 6 C 12.193469 7.886878 -2.591996 0
M  V30 7 C 11.358698 6.630914 -4.507290 0
M  V30 8 C 8.958405 4.339907 -11.699287 0
M  V30 9 O 11.775398 10.181779 -5.440890 0
M  V30 10 O 6.575321 -0.382655 -13.006086 0
M  V30 11 C 10.916306 7.780821 -6.717328 0
M  V30 12 C 11.775434 9.030558 -4.706848 0
M  V30 13 O 8.539535 1.489110 -13.185016 0
M  V30 14 C 6.202149 0.931175 -13.396017 0
M  V30 15 C 9.469996 5.505043 -9.425713 0
M  V30 16 N 9.699964 5.190209 -14.550317 0 CHG=1
M  V30 17 C 9.130807 5.668274 -10.923830 0
M  V30 18 O 5.724023 3.748162 -13.584902 0
M  V30 19 C 8.000458 4.453903 -12.894490 0 CFG=2
M  V30 20 C 7.394917 1.905483 -13.347723 0
M  V30 21 C 11.775742 6.674217 -3.162456 0
M  V30 22 C 10.053110 6.770566 -8.771759 0
M  V30 23 C 8.438352 5.543482 -13.866733 0
M  V30 24 C 12.193069 9.062120 -3.360723 0
M  V30 25 H 6.307334 3.810590 -11.547158 0
M  V30 26 H 10.358472 5.734082 -6.853645 0
M  V30 27 H 12.514311 7.916764 -1.561919 0
M  V30 28 H 11.043042 5.692867 -4.930366 0
M  V30 29 H 9.926656 3.965914 -12.032010 0
M  V30 30 H 8.575323 3.590244 -11.014954 0
M  V30 31 H 11.414293 10.071125 -6.305980 0
M  V30 32 H 5.865432 -0.998016 -13.185037 0
M  V30 33 H 10.983347 8.709579 -7.262438 0
M  V30 34 H 5.816984 0.901053 -14.415441 0
M  V30 35 H 5.396255 1.286238 -12.757446 0
M  V30 36 H 10.175295 4.688991 -9.284689 0
M  V30 37 H 8.568775 5.222396 -8.880379 0
M  V30 38 H 10.015376 5.964383 -15.116394 0
M  V30 39 H 9.549920 4.390350 -15.146694 0
M  V30 40 H 9.899512 6.256888 -11.426976 0
M  V30 41 H 8.211958 6.255967 -10.980127 0
M  V30 42 H 11.775449 5.771197 -2.568855 0
M  V30 43 H 7.664582 5.691086 -14.621690 0
M  V30 44 H 8.546759 6.498108 -13.352985 0
M  V30 45 H 12.513042 9.990237 -2.917084 0
M  V30 46 H 10.424504 4.956525 -13.879445 0
M  V30 END ATOM
M  V30 BEGIN BOND
M  V30 1 1 4 1
M  V30 2 2 7 3
M  V30 3 2 11 2
M  V30 4 1 11 3
M  V30 5 1 12 3
M  V30 6 1 12 9
M  V30 7 1 14 10
M  V30 8 1 17 8
M  V30 9 1 17 15
M  V30 10 1 18 1
M  V30 11 1 18 4
M  V30 12 1 19 1
M  V30 13 1 19 4
M  V30 14 1 19 8 CFG=1
M  V30 15 1 4 20 CFG=1
M  V30 16 2 20 13
M  V30 17 1 20 14
M  V30 18 2 21 6
M  V30 19 1 21 7
M  V30 20 1 22 2
M  V30 21 2 22 5
M  V30 22 1 22 15
M  V30 23 1 23 16
M  V30 24 1 23 19
M  V30 25 1 24 6
M  V30 26 2 24 12
M  V30 27 1 1 25 CFG=1
M  V30 28 1 26 2
M  V30 29 1 27 6
M  V30 30 1 28 7
M  V30 31 1 29 8
M  V30 32 1 30 8
M  V30 33 1 31 9
M  V30 34 1 32 10
M  V30 35 1 33 11
M  V30 36 1 34 14
M  V30 37 1 35 14
M  V30 38 1 36 15
M  V30 39 1 37 15
M  V30 40 1 38 16
M  V30 41 1 39 16
M  V30 42 1 40 17
M  V30 43 1 41 17
M  V30 44 1 42 21
M  V30 45 1 43 23
M  V30 46 1 44 23
M  V30 47 1 45 24
M  V30 48 1 46 16
M  V30 END BOND
M  V30 END CTAB
M  END
>  <i_epik_Tot_Q>  (1) 
1

>  <i_epik_Tot_abs_Q>  (1) 
1

>  <i_i_glide_confnum>  (1) 
653

>  <i_i_glide_lignum>  (1) 
71

>  <i_i_glide_posenum>  (1) 
198

>  <i_i_glide_rotatable_bonds>  (1) 
11

>  <i_lp_mmshare_version>  (1) 
72125

>  <i_m_source_file_index>  (1) 
45

>  <i_f3d_flags>  (1) 
0

>  <num_sample>  (1) 
100

>  <b_lp_Chiralities_Consistent>  (1) 
1

>  <r_epik_Charging_Adjusted_Penalty>  (1) 
0.0039975134785533318

>  <r_epik_Ionization_Penalty>  (1) 
0.0083805373542956835

>  <r_epik_Ionization_Penalty_Charging>  (1) 
0.0039975134785533318

>  <r_epik_Ionization_Penalty_Neutral>  (1) 
0.0043830238757423508

>  <r_epik_State_Penalty>  (1) 
-0

>  <r_glide_ring_energy>  (1) 
0

>  <r_i_docking_score>  (1) 
-6.8860542896536101

>  <r_i_glide_ecoul>  (1) 
-7.4963875971075193

>  <r_i_glide_eff_state_penalty>  (1) 
-0

>  <r_i_glide_einternal>  (1) 
3.9049427548446722

>  <r_i_glide_emodel>  (1) 
-65.454564313476297

>  <r_i_glide_emodel_strain>  (1) 
0.41709974962951435

>  <r_i_glide_energy>  (1) 
-42.552449150939388

>  <r_i_glide_erotb>  (1) 
1.3638172886518747

>  <r_i_glide_esite>  (1) 
-0.081368821223358756

>  <r_i_glide_evdw>  (1) 
-35.056061553831867

>  <r_i_glide_gscore>  (1) 
-6.8860542896536101

>  <r_i_glide_gscore_strain>  (1) 
0

>  <r_i_glide_hbond>  (1) 
-0.16

>  <r_i_glide_ligand_efficiency>  (1) 
-0.28691892873556707

>  <r_i_glide_ligand_efficiency_ln>  (1) 
-1.6481487719559

>  <r_i_glide_ligand_efficiency_sa>  (1) 
-0.82761740336386713

>  <r_i_glide_lipo>  (1) 
-3.2147131486723404

>  <r_i_glide_metal>  (1) 
-0

>  <r_i_glide_rewards>  (1) 
-1.9165283911520641

>  <r_lp_Energy>  (1) 
24.892022999999998

>  <r_lp_tautomer_probability>  (1) 
1

>  <s_epik_cmdline>  (1) 
J2VwaWtfcHl0aG9uJywgJy1waHQnLCAnMS4wJywgJy1waCcsICc3LjQnLCAnLXRuJywgJzgnLCAnLW1hJywgJzUwMCcsICctaW1hZScsICc8aW5maWxlLm1hZT4nLCAnLW9tYWUnLCAnPG91dGZpbGUubWFlPic=

>  <s_epik_input>  (1) 
W09IXVtDSDJdQyg9TylbQ0BdMTJbQ0BIXShPMSlbQ0BAXTIoW0NIMl1bTkgyXSlbQ0gyXVtDSDJdW0NIMl1DKD1PKS9bQ0hdPVtDSF0vYzNbY0hdW2NIXVtjSF1bY0hdYzNbT0hd

>  <s_glide_docking_method>  (1) 
confgen

>  <s_i_glide_gridfile>  (1) 
gpcr_drd2_6luq_protein_autoprepared_prepared

>  <s_lp_Force_Field>  (1) 
S-OPLS

>  <s_lp_Variant>  (1) 
DiffSBDD_44-1

>  <s_m_source_file>  (1) 
generated_generic_title2_ligand_DiffSBDD_2026-06-23_prepared.sdf

>  <GenAI_Model>  (1) 
DiffSBDD

>  <Protein>  (1) 
generic_title2

$$$$
DiffSBDD_36
     RDKit          3D

  0  0  0  0  0  0  0  0  0  0999 V3000
M  V30 BEGIN CTAB
M  V30 COUNTS 49 51 0 0 1
M  V30 BEGIN ATOM
M  V30 1 C 7.346824 4.256582 -13.692057 0
M  V30 2 C 10.348329 7.181165 -6.254530 0
M  V30 3 N 8.442150 5.655538 -10.367863 0
M  V30 4 O 9.767210 7.991426 -10.578521 0 CHG=-1
M  V30 5 C 10.974159 9.269733 -5.946303 0
M  V30 6 O 5.959830 7.129167 -11.985114 0
M  V30 7 C 6.913183 6.455462 -12.783036 0 CFG=2
M  V30 8 C 11.609162 8.570720 -5.018212 0
M  V30 9 C 10.193581 8.420089 -6.697421 0
M  V30 10 C 9.517928 5.876106 -9.421610 0 CFG=2
M  V30 11 C 12.590955 8.443088 -2.832779 0
M  V30 12 C 6.460183 6.432629 -14.252683 0
M  V30 13 C 11.385117 6.474889 -3.693675 0
M  V30 14 C 9.685380 5.939711 -6.801644 0
M  V30 15 O 9.360511 4.144928 -11.767946 0
M  V30 16 C 8.819318 5.994793 -8.052079 0
M  V30 17 C 6.385058 4.961366 -14.642930 0
M  V30 18 C 5.974066 4.351459 -11.573358 0
M  V30 19 C 10.289218 7.167038 -9.794221 0
M  V30 20 C 8.429948 4.889785 -11.460464 0
M  V30 21 C 11.990734 7.114571 -2.661483 0
M  V30 22 O 11.437143 7.291579 -9.316404 0
M  V30 23 C 11.387403 7.027611 -5.105255 0 CFG=1
M  V30 24 C 7.168544 4.980090 -12.341605 0 CFG=1
M  V30 25 C 12.384885 9.148445 -3.960749 0
M  V30 26 H 7.147760 3.187323 -13.624917 0
M  V30 27 H 8.361951 4.370189 -14.076876 0
M  V30 28 H 7.656768 6.276674 -10.210753 0
M  V30 29 H 10.987928 10.345790 -6.036587 0
M  V30 30 H 6.338785 7.349872 -11.133251 0
M  V30 31 H 7.834258 7.042126 -12.733906 0
M  V30 32 H 9.539086 8.721121 -7.502743 0
M  V30 33 H 10.175148 5.012169 -9.408159 0
M  V30 34 H 13.153809 8.884359 -2.022959 0
M  V30 35 H 5.510296 6.943314 -14.420588 0
M  V30 36 H 7.209029 6.927187 -14.871497 0
M  V30 37 H 10.929245 5.534763 -3.544995 0
M  V30 38 H 9.050220 5.590259 -5.996159 0
M  V30 39 H 10.465846 5.200879 -6.975894 0
M  V30 40 H 8.175783 6.847521 -7.986662 0
M  V30 41 H 8.138865 5.144647 -7.980249 0
M  V30 42 H 5.375093 4.602202 -14.460302 0
M  V30 43 H 6.623415 4.786056 -15.692235 0
M  V30 44 H 5.032513 4.481202 -12.107741 0
M  V30 45 H 6.118970 3.280940 -11.429326 0
M  V30 46 H 5.839826 4.790589 -10.582275 0
M  V30 47 H 12.002415 6.649779 -1.686622 0
M  V30 48 H 12.175455 6.484722 -5.610045 0
M  V30 49 H 12.773157 10.142230 -4.054587 0
M  V30 END ATOM
M  V30 BEGIN BOND
M  V30 1 1 7 6
M  V30 2 2 8 5
M  V30 3 2 9 2
M  V30 4 1 9 5
M  V30 5 1 10 3
M  V30 6 1 12 7
M  V30 7 1 14 2
M  V30 8 1 16 10
M  V30 9 1 16 14
M  V30 10 1 17 1
M  V30 11 1 17 12
M  V30 12 1 19 4
M  V30 13 1 19 10
M  V30 14 1 20 3
M  V30 15 2 20 15
M  V30 16 1 21 11
M  V30 17 2 21 13
M  V30 18 2 22 19
M  V30 19 1 23 2
M  V30 20 1 23 8
M  V30 21 1 23 13
M  V30 22 1 24 1
M  V30 23 1 24 7
M  V30 24 1 24 18 CFG=1
M  V30 25 1 24 20
M  V30 26 1 25 8
M  V30 27 2 25 11
M  V30 28 1 26 1
M  V30 29 1 27 1
M  V30 30 1 28 3
M  V30 31 1 29 5
M  V30 32 1 30 6
M  V30 33 1 7 31 CFG=3
M  V30 34 1 32 9
M  V30 35 1 10 33 CFG=1
M  V30 36 1 34 11
M  V30 37 1 35 12
M  V30 38 1 36 12
M  V30 39 1 37 13
M  V30 40 1 38 14
M  V30 41 1 39 14
M  V30 42 1 40 16
M  V30 43 1 41 16
M  V30 44 1 42 17
M  V30 45 1 43 17
M  V30 46 1 44 18
M  V30 47 1 45 18
M  V30 48 1 46 18
M  V30 49 1 47 21
M  V30 50 1 23 48 CFG=3
M  V30 51 1 49 25
M  V30 END BOND
M  V30 END CTAB
M  END
>  <i_epik_Tot_Q>  (1) 
-1

>  <i_epik_Tot_abs_Q>  (1) 
1

>  <i_i_glide_confnum>  (1) 
449

>  <i_i_glide_lignum>  (1) 
62

>  <i_i_glide_posenum>  (1) 
265

>  <i_i_glide_rotatable_bonds>  (1) 
8

>  <i_lp_mmshare_version>  (1) 
72125

>  <i_m_source_file_index>  (1) 
37

>  <i_f3d_flags>  (1) 
0

>  <num_sample>  (1) 
100

>  <b_lp_Chiralities_Consistent>  (1) 
1

>  <r_epik_Charging_Adjusted_Penalty>  (1) 
6.3624129575878713e-05

>  <r_epik_Ionization_Penalty>  (1) 
6.3751974232529901e-05

>  <r_epik_Ionization_Penalty_Charging>  (1) 
6.3624129575878713e-05

>  <r_epik_Ionization_Penalty_Neutral>  (1) 
1.2784465665118319e-07

>  <r_epik_State_Penalty>  (1) 
-0

>  <r_glide_ring_energy>  (1) 
1.8447939573849956

>  <r_i_docking_score>  (1) 
-6.8679192786939005

>  <r_i_glide_ecoul>  (1) 
-4.6669719265988592

>  <r_i_glide_eff_state_penalty>  (1) 
-0

>  <r_i_glide_einternal>  (1) 
5.4874785481946837

>  <r_i_glide_emodel>  (1) 
-42.117386282814699

>  <r_i_glide_emodel_strain>  (1) 
1.0817688387632245

>  <r_i_glide_energy>  (1) 
-34.187270786066406

>  <r_i_glide_erotb>  (1) 
0.80862173255752579

>  <r_i_glide_esite>  (1) 
-0.14061875445444791

>  <r_i_glide_evdw>  (1) 
-29.520298859467548

>  <r_i_glide_gscore>  (1) 
-6.8679192786939005

>  <r_i_glide_gscore_strain>  (1) 
0

>  <r_i_glide_hbond>  (1) 
-0.30399999999999999

>  <r_i_glide_ligand_efficiency>  (1) 
-0.274716771147756

>  <r_i_glide_ligand_efficiency_ln>  (1) 
-1.6279026839829913

>  <r_i_glide_ligand_efficiency_sa>  (1) 
-0.80327671182060312

>  <r_i_glide_lipo>  (1) 
-2.971346244526428

>  <r_i_glide_metal>  (1) 
-0

>  <r_i_glide_rewards>  (1) 
-2.0845152803073423

>  <r_lp_Energy>  (1) 
46.703179999999996

>  <r_lp_tautomer_probability>  (1) 
1

>  <s_epik_cmdline>  (1) 
J2VwaWtfcHl0aG9uJywgJy1waHQnLCAnMS4wJywgJy1waCcsICc3LjQnLCAnLXRuJywgJzgnLCAnLW1hJywgJzUwMCcsICctaW1hZScsICc8aW5maWxlLm1hZT4nLCAnLW9tYWUnLCAnPG91dGZpbGUubWFlPic=

>  <s_epik_input>  (1) 
W09IXVtDQEBIXTFbQ0gyXVtDSDJdW0NIMl1bQ0BAXTEoW0NIM10pQyg9TylbTkhdW0NAQEhdKEMoPU8pW09IXSlbQ0gyXVtDSDJdQyg9W0NIXVtDSF09MilbQ0BIXShDMjMpW0NIXT1bQ0hdW0NIXT1bQ0hdMw==

>  <s_glide_docking_method>  (1) 
confgen

>  <s_i_glide_gridfile>  (1) 
gpcr_drd2_6luq_protein_autoprepared_prepared

>  <s_lp_Force_Field>  (1) 
S-OPLS

>  <s_lp_Variant>  (1) 
DiffSBDD_36-2

>  <s_m_source_file>  (1) 
generated_generic_title2_ligand_DiffSBDD_2026-06-23_prepared.sdf

>  <GenAI_Model>  (1) 
DiffSBDD

>  <Protein>  (1) 
generic_title2

$$$$
DiffSBDD_33
     RDKit          3D

  0  0  0  0  0  0  0  0  0  0999 V3000
M  V30 BEGIN CTAB
M  V30 COUNTS 48 50 0 0 1
M  V30 BEGIN ATOM
M  V30 1 C 6.663580 5.762624 -13.181635 0
M  V30 2 C 10.775228 8.693127 -7.374958 0
M  V30 3 C 6.601382 5.294295 -14.525510 0 CFG=1
M  V30 4 C 10.182260 7.004512 -5.652543 0
M  V30 5 N 7.655476 4.453407 -13.911010 0
M  V30 6 C 7.758096 5.002124 -12.512871 0 CFG=1
M  V30 7 C 11.775804 8.853686 -5.023864 0
M  V30 8 O 6.975417 2.615907 -15.080392 0 CHG=-1
M  V30 9 C 6.262850 5.692839 -15.961473 0 CFG=1
M  V30 10 C 10.442844 7.203747 -7.149939 0
M  V30 11 N 9.224984 6.789619 -7.888001 0 CHG=1
M  V30 12 S 9.430380 5.770542 -12.399778 0
M  V30 13 C 9.375417 6.369462 -9.296273 0
M  V30 14 C 5.174100 6.679862 -16.320396 0
M  V30 15 C 11.948255 9.196068 -6.513823 0
M  V30 16 C 11.383277 7.378512 -4.795998 0
M  V30 17 C 9.741108 7.522305 -10.250524 0
M  V30 18 O 7.375421 6.235834 -15.304499 0
M  V30 19 O 8.040510 2.323633 -13.185021 0
M  V30 20 F 12.916552 9.112918 -4.384962 0
M  V30 21 F 10.842961 9.657462 -4.519322 0
M  V30 22 C 9.123624 7.389625 -11.645564 0
M  V30 23 C 5.868691 6.677697 -12.600551 0
M  V30 24 C 7.556948 3.063939 -14.068550 0
M  V30 25 H 11.018494 8.902069 -8.413380 0
M  V30 26 H 9.877803 9.259255 -7.134966 0
M  V30 27 H 9.375410 7.660914 -5.369564 0
M  V30 28 H 9.865237 5.990226 -5.431583 0
M  V30 29 H 7.516591 4.303812 -11.709970 0
M  V30 30 H 6.521322 4.978643 -16.740982 0
M  V30 31 H 11.280336 6.573718 -7.455255 0
M  V30 32 H 8.507644 7.507504 -7.856917 0
M  V30 33 H 8.407503 5.957401 -9.584882 0
M  V30 34 H 10.092835 5.552415 -9.374493 0
M  V30 35 H 4.248620 6.150941 -16.547242 0
M  V30 36 H 4.993361 7.373280 -15.500056 0
M  V30 37 H 5.469590 7.256809 -17.196650 0
M  V30 38 H 12.882677 8.790226 -6.897345 0
M  V30 39 H 12.040551 10.276918 -6.621787 0
M  V30 40 H 12.175410 6.688284 -5.056149 0
M  V30 41 H 11.188507 7.190230 -3.742001 0
M  V30 42 H 10.825297 7.606140 -10.330264 0
M  V30 43 H 9.375445 8.467802 -9.849176 0
M  V30 44 H 9.535334 8.154629 -12.303920 0
M  V30 45 H 8.061608 7.594018 -11.585019 0
M  V30 46 H 5.086418 7.168432 -13.157740 0
M  V30 47 H 5.989975 6.942411 -11.560659 0
M  V30 48 H 8.839020 5.990880 -7.405735 0
M  V30 END ATOM
M  V30 BEGIN BOND
M  V30 1 1 3 1
M  V30 2 1 5 3
M  V30 3 1 6 1
M  V30 4 1 6 5
M  V30 5 1 9 3
M  V30 6 1 10 2
M  V30 7 1 10 4
M  V30 8 1 11 10
M  V30 9 1 12 6
M  V30 10 1 13 11
M  V30 11 1 14 9
M  V30 12 1 15 2
M  V30 13 1 15 7
M  V30 14 1 16 4
M  V30 15 1 16 7
M  V30 16 1 17 13
M  V30 17 1 3 18 CFG=1
M  V30 18 1 18 9
M  V30 19 1 20 7
M  V30 20 1 21 7
M  V30 21 1 22 12
M  V30 22 1 22 17
M  V30 23 2 23 1
M  V30 24 1 24 5
M  V30 25 1 24 8
M  V30 26 2 24 19
M  V30 27 1 25 2
M  V30 28 1 26 2
M  V30 29 1 27 4
M  V30 30 1 28 4
M  V30 31 1 6 29 CFG=1
M  V30 32 1 9 30 CFG=3
M  V30 33 1 31 10
M  V30 34 1 32 11
M  V30 35 1 33 13
M  V30 36 1 34 13
M  V30 37 1 35 14
M  V30 38 1 36 14
M  V30 39 1 37 14
M  V30 40 1 38 15
M  V30 41 1 39 15
M  V30 42 1 40 16
M  V30 43 1 41 16
M  V30 44 1 42 17
M  V30 45 1 43 17
M  V30 46 1 44 22
M  V30 47 1 45 22
M  V30 48 1 46 23
M  V30 49 1 47 23
M  V30 50 1 48 11
M  V30 END BOND
M  V30 END CTAB
M  END
>  <i_epik_Tot_Q>  (1) 
0

>  <i_epik_Tot_abs_Q>  (1) 
2

>  <i_i_glide_confnum>  (1) 
367

>  <i_i_glide_lignum>  (1) 
56

>  <i_i_glide_posenum>  (1) 
284

>  <i_i_glide_rotatable_bonds>  (1) 
7

>  <i_lp_mmshare_version>  (1) 
72125

>  <i_m_source_file_index>  (1) 
34

>  <i_f3d_flags>  (1) 
0

>  <num_sample>  (1) 
100

>  <b_lp_Chiralities_Consistent>  (1) 
1

>  <r_epik_Charging_Adjusted_Penalty>  (1) 
0.0028136040477262391

>  <r_epik_Ionization_Penalty>  (1) 
0.0028136042679479389

>  <r_epik_Ionization_Penalty_Charging>  (1) 
0.0028136040477262391

>  <r_epik_Ionization_Penalty_Neutral>  (1) 
2.2022169967552159e-10

>  <r_epik_State_Penalty>  (1) 
-0

>  <r_glide_ring_energy>  (1) 
0

>  <r_i_docking_score>  (1) 
-6.8627330895748768

>  <r_i_glide_ecoul>  (1) 
-1.8730258273518849

>  <r_i_glide_eff_state_penalty>  (1) 
-0

>  <r_i_glide_einternal>  (1) 
8.162687313836269

>  <r_i_glide_emodel>  (1) 
-42.810207794391424

>  <r_i_glide_emodel_strain>  (1) 
0.91423755749292468

>  <r_i_glide_energy>  (1) 
-29.885155339896656

>  <r_i_glide_erotb>  (1) 
0.51160899165852303

>  <r_i_glide_esite>  (1) 
-0.10000000000000001

>  <r_i_glide_evdw>  (1) 
-28.012129512544771

>  <r_i_glide_gscore>  (1) 
-6.8627330895748768

>  <r_i_glide_gscore_strain>  (1) 
0

>  <r_i_glide_hbond>  (1) 
-0.095736906883871334

>  <r_i_glide_ligand_efficiency>  (1) 
-0.28594721206561985

>  <r_i_glide_ligand_efficiency_ln>  (1) 
-1.6425669386369188

>  <r_i_glide_ligand_efficiency_sa>  (1) 
-0.82481448746448327

>  <r_i_glide_lipo>  (1) 
-1.7801599548330194

>  <r_i_glide_metal>  (1) 
-0

>  <r_i_glide_rewards>  (1) 
-3.716884869786488

>  <r_lp_Energy>  (1) 
17.488744999999998

>  <r_lp_tautomer_probability>  (1) 
1

>  <s_epik_Chemistry_Notes>  (1) 
This compound contains an acetal/aminal-like group ( X-CH(R)-Y where X, Y are N, S, or O) that may be acid/base labile, releasing an aldehyde.

>  <s_epik_cmdline>  (1) 
J2VwaWtfcHl0aG9uJywgJy1waHQnLCAnMS4wJywgJy1waCcsICc3LjQnLCAnLXRuJywgJzgnLCAnLW1hJywgJzUwMCcsICctaW1hZScsICc8aW5maWxlLm1hZT4nLCAnLW9tYWUnLCAnPG91dGZpbGUubWFlPic=

>  <s_epik_input>  (1) 
W0NIM11bQ0BASF0oTzEpQzEyQyg9W0NIMl0pW0NAQEhdKE4yQyg9TylbT0hdKVNbQ0gyXVtDSDJdW0NIMl1bTkhdW0NIXShbQ0gyXVtDSDJdMylbQ0gyXVtDSDJdQzMoRilG

>  <s_glide_docking_method>  (1) 
confgen

>  <s_i_glide_gridfile>  (1) 
gpcr_drd2_6luq_protein_autoprepared_prepared

>  <s_lp_Force_Field>  (1) 
S-OPLS

>  <s_lp_Variant>  (1) 
DiffSBDD_33-1

>  <s_m_source_file>  (1) 
generated_generic_title2_ligand_DiffSBDD_2026-06-23_prepared.sdf

>  <GenAI_Model>  (1) 
DiffSBDD

>  <Protein>  (1) 
generic_title2

$$$$
DiffSBDD_76
     RDKit          3D

  0  0  0  0  0  0  0  0  0  0999 V3000
M  V30 BEGIN CTAB
M  V30 COUNTS 54 57 0 0 1
M  V30 BEGIN ATOM
M  V30 1 N 6.934182 6.466546 -11.639289 0 CHG=1
M  V30 2 N 11.369727 7.883914 -4.788494 0
M  V30 3 C 5.683414 5.577837 -13.689041 0 CFG=1
M  V30 4 C 10.548017 7.414996 -5.885467 0
M  V30 5 F 10.079627 7.534195 -11.724888 0
M  V30 6 C 11.811200 9.086544 -4.514910 0
M  V30 7 C 6.352773 4.220132 -13.977343 0
M  V30 8 C 5.646553 5.999560 -12.188571 0
M  V30 9 C 9.522083 5.529495 -8.115672 0
M  V30 10 C 8.067070 5.528153 -11.631095 0
M  V30 11 C 7.590138 1.720589 -14.455902 0
M  V30 12 N 11.775410 7.038910 -3.824281 0
M  V30 13 C 7.752650 2.768704 -15.380493 0
M  V30 14 C 6.811280 1.911831 -13.304456 0
M  V30 15 C 7.283343 5.102369 -16.177654 0
M  V30 16 N 11.499991 10.131822 -5.371330 0
M  V30 17 C 6.384116 6.324351 -16.007512 0
M  V30 18 C 6.197251 3.153465 -13.062898 0
M  V30 19 C 10.516679 6.520179 -8.221399 0
M  V30 20 C 6.237337 6.731345 -14.549994 0
M  V30 21 O 8.058062 5.036268 -17.129658 0
M  V30 22 C 10.703042 7.202460 -9.440484 0
M  V30 23 N 12.522557 9.191995 -3.419205 0
M  V30 24 C 11.384168 6.847455 -7.027783 0
M  V30 25 C 8.729410 5.205507 -9.224110 0
M  V30 26 C 9.904944 6.879129 -10.552949 0
M  V30 27 C 8.924602 5.874177 -10.446362 0
M  V30 28 C 12.460264 7.871593 -3.012202 0
M  V30 29 C 7.127578 4.018343 -15.158241 0
M  V30 30 H 6.794689 6.790205 -10.676794 0
M  V30 31 H 4.646078 5.431859 -13.984990 0
M  V30 32 H 9.837334 6.678688 -5.511206 0
M  V30 33 H 9.945859 8.242306 -6.257941 0
M  V30 34 H 5.240985 5.233906 -11.530182 0
M  V30 35 H 4.977977 6.851478 -12.072887 0
M  V30 36 H 9.372473 5.015393 -7.185036 0
M  V30 37 H 8.634043 5.592160 -12.563331 0
M  V30 38 H 7.745733 4.494886 -11.522064 0
M  V30 39 H 8.062405 0.764819 -14.633651 0
M  V30 40 H 8.346401 2.609299 -16.268857 0
M  V30 41 H 6.686792 1.104053 -12.599289 0
M  V30 42 H 11.809778 11.074633 -5.187177 0
M  V30 43 H 10.938013 9.987642 -6.197283 0
M  V30 44 H 6.753209 7.151563 -16.611752 0
M  V30 45 H 5.406878 6.072571 -16.416505 0
M  V30 46 H 5.608741 3.286974 -12.172971 0
M  V30 47 H 5.592687 7.607790 -14.470603 0
M  V30 48 H 7.219451 7.052125 -14.199147 0
M  V30 49 H 11.458744 7.969404 -9.523306 0
M  V30 50 H 12.168829 7.548057 -7.316328 0
M  V30 51 H 11.888525 5.935434 -6.705430 0
M  V30 52 H 7.967968 4.443484 -9.136923 0
M  V30 53 H 12.921351 7.520981 -2.100699 0
M  V30 54 H 7.221923 7.286517 -12.151776 0
M  V30 END ATOM
M  V30 BEGIN BOND
M  V30 1 1 4 2
M  V30 2 1 6 2
M  V30 3 1 7 3
M  V30 4 1 8 1
M  V30 5 1 8 3
M  V30 6 1 10 1
M  V30 7 1 12 2
M  V30 8 1 13 11
M  V30 9 2 14 11
M  V30 10 1 16 6
M  V30 11 1 17 15
M  V30 12 2 18 7
M  V30 13 1 18 14
M  V30 14 1 19 9
M  V30 15 1 20 3
M  V30 16 1 20 17
M  V30 17 2 21 15
M  V30 18 2 22 19
M  V30 19 2 23 6
M  V30 20 1 24 4
M  V30 21 1 24 19
M  V30 22 2 25 9
M  V30 23 1 26 5
M  V30 24 1 26 22
M  V30 25 1 27 10
M  V30 26 1 27 25
M  V30 27 2 27 26
M  V30 28 2 28 12
M  V30 29 1 28 23
M  V30 30 1 29 7
M  V30 31 2 29 13
M  V30 32 1 29 15
M  V30 33 1 30 1
M  V30 34 1 3 31 CFG=3
M  V30 35 1 32 4
M  V30 36 1 33 4
M  V30 37 1 34 8
M  V30 38 1 35 8
M  V30 39 1 36 9
M  V30 40 1 37 10
M  V30 41 1 38 10
M  V30 42 1 39 11
M  V30 43 1 40 13
M  V30 44 1 41 14
M  V30 45 1 42 16
M  V30 46 1 43 16
M  V30 47 1 44 17
M  V30 48 1 45 17
M  V30 49 1 46 18
M  V30 50 1 47 20
M  V30 51 1 48 20
M  V30 52 1 49 22
M  V30 53 1 50 24
M  V30 54 1 51 24
M  V30 55 1 52 25
M  V30 56 1 53 28
M  V30 57 1 54 1
M  V30 END BOND
M  V30 END CTAB
M  END
>  <i_epik_Tot_Q>  (1) 
1

>  <i_epik_Tot_abs_Q>  (1) 
1

>  <i_i_glide_confnum>  (1) 
29

>  <i_i_glide_lignum>  (1) 
125

>  <i_i_glide_posenum>  (1) 
73

>  <i_i_glide_rotatable_bonds>  (1) 
7

>  <i_lp_mmshare_version>  (1) 
72125

>  <i_m_source_file_index>  (1) 
77

>  <i_f3d_flags>  (1) 
0

>  <num_sample>  (1) 
100

>  <b_lp_Chiralities_Consistent>  (1) 
1

>  <r_epik_Charging_Adjusted_Penalty>  (1) 
0.13114515656656739

>  <r_epik_Ionization_Penalty>  (1) 
0.066343571056588849

>  <r_epik_Ionization_Penalty_Charging>  (1) 
0.065572578283283764

>  <r_epik_Ionization_Penalty_Neutral>  (1) 
0.00077099277330508725

>  <r_epik_State_Penalty>  (1) 
0.065572578283283625

>  <r_glide_ring_energy>  (1) 
0

>  <r_i_docking_score>  (1) 
-6.829053840250018

>  <r_i_glide_ecoul>  (1) 
-4.3262564593640818

>  <r_i_glide_eff_state_penalty>  (1) 
0.065572578283283625

>  <r_i_glide_einternal>  (1) 
4.12698404369225

>  <r_i_glide_emodel>  (1) 
-66.675647123269528

>  <r_i_glide_emodel_strain>  (1) 
0.25487795643800126

>  <r_i_glide_energy>  (1) 
-46.348380506696387

>  <r_i_glide_erotb>  (1) 
0.75361898126616078

>  <r_i_glide_esite>  (1) 
-0.13144386072773426

>  <r_i_glide_evdw>  (1) 
-42.022124047332305

>  <r_i_glide_gscore>  (1) 
-6.8946264185333019

>  <r_i_glide_gscore_strain>  (1) 
0

>  <r_i_glide_hbond>  (1) 
-0.20000000000000001

>  <r_i_glide_ligand_efficiency>  (1) 
-0.23548461518103511

>  <r_i_glide_ligand_efficiency_ln>  (1) 
-1.56368015955337

>  <r_i_glide_ligand_efficiency_sa>  (1) 
-0.72348334541085113

>  <r_i_glide_lipo>  (1) 
-1.7378763609042562

>  <r_i_glide_metal>  (1) 
-0

>  <r_i_glide_rewards>  (1) 
-2.8288805068962457

>  <r_lp_Energy>  (1) 
27.011975

>  <r_lp_tautomer_probability>  (1) 
0.99994999147066566

>  <s_epik_cmdline>  (1) 
J2VwaWtfcHl0aG9uJywgJy1waHQnLCAnMS4wJywgJy1waCcsICc3LjQnLCAnLXRuJywgJzgnLCAnLW1hJywgJzUwMCcsICctaW1hZScsICc8aW5maWxlLm1hZT4nLCAnLW9tYWUnLCAnPG91dGZpbGUubWFlPic=

>  <s_epik_input>  (1) 
W2NIXTFbY0hdW2NIXVtjSF1jKGMxMilDKD1PKVtDSDJdW0NIMl1bQ0BIXTJbQ0gyXVtOSF1bQ0gyXWMoYyhGKVtjSF0zKVtjSF1bY0hdYzNbQ0gyXVtDSDJdbjRjKFtOSDJdKW5bY0hdbjQ=

>  <s_glide_docking_method>  (1) 
confgen

>  <s_i_glide_gridfile>  (1) 
gpcr_drd2_6luq_protein_autoprepared_prepared

>  <s_lp_Force_Field>  (1) 
S-OPLS

>  <s_lp_Variant>  (1) 
DiffSBDD_76-2

>  <s_m_source_file>  (1) 
generated_generic_title2_ligand_DiffSBDD_2026-06-23_prepared.sdf

>  <GenAI_Model>  (1) 
DiffSBDD

>  <Protein>  (1) 
generic_title2

$$$$
DiffSBDD_11
     RDKit          3D

  0  0  0  0  0  0  0  0  0  0999 V3000
M  V30 BEGIN CTAB
M  V30 COUNTS 44 44 0 0 1
M  V30 BEGIN ATOM
M  V30 1 C 8.141673 6.067387 -11.747436 0 CFG=1
M  V30 2 C 11.217451 6.407542 -4.749215 0
M  V30 3 C 8.838745 7.444845 -11.618654 0
M  V30 4 C 10.397646 8.260351 -8.083743 0
M  V30 5 C 12.818790 8.363939 -1.724588 0
M  V30 6 C 11.091255 7.906017 -6.738990 0 CFG=1
M  V30 7 C 11.775403 8.772120 -4.422206 0
M  V30 8 C 10.192960 7.056081 -9.021033 0
M  V30 9 C 11.211285 9.119692 -5.780320 0 CFG=1
M  V30 10 C 9.003690 4.995365 -12.433782 0
M  V30 11 N 7.619700 5.590224 -10.455957 0 CHG=1
M  V30 12 N 11.775411 7.548133 -3.967421 0 CHG=1
M  V30 13 C 12.320439 7.206427 -2.617968 0
M  V30 14 C 12.099241 10.243644 -6.316576 0
M  V30 15 C 10.374065 6.791435 -5.972432 0
M  V30 16 S 10.464453 7.452306 -10.781181 0
M  V30 17 H 7.260888 6.229849 -12.370609 0
M  V30 18 H 12.072214 5.801705 -5.052200 0
M  V30 19 H 10.619587 5.810726 -4.060434 0
M  V30 20 H 9.029647 7.811551 -12.627583 0
M  V30 21 H 8.176607 8.191875 -11.184987 0
M  V30 22 H 9.436506 8.745436 -7.906750 0
M  V30 23 H 11.008338 8.991793 -8.610806 0
M  V30 24 H 13.217700 7.989936 -0.784980 0
M  V30 25 H 12.015372 9.059472 -1.478032 0
M  V30 26 H 13.627598 8.918549 -2.197789 0
M  V30 27 H 12.093987 7.552063 -6.986266 0
M  V30 28 H 12.191344 9.544940 -3.789597 0
M  V30 29 H 10.927466 6.286598 -8.784802 0
M  V30 30 H 9.217330 6.618137 -8.835578 0
M  V30 31 H 9.359592 5.343853 -13.404258 0
M  V30 32 H 8.435867 4.080411 -12.606145 0
M  V30 33 H 9.879601 4.731528 -11.840072 0
M  V30 34 H 8.367374 5.208799 -9.898208 0
M  V30 35 H 6.882178 4.912587 -10.577296 0
M  V30 36 H 11.528169 6.666263 -2.097343 0
M  V30 37 H 13.129067 6.495182 -2.784912 0
M  V30 38 H 12.033259 11.128875 -5.686397 0
M  V30 39 H 11.775410 10.557188 -7.296986 0
M  V30 40 H 13.146559 9.943405 -6.385018 0
M  V30 41 H 9.377317 7.119194 -5.668607 0
M  V30 42 H 10.228191 5.907873 -6.590772 0
M  V30 43 H 7.254303 6.436165 -9.985028 0
M  V30 44 H 10.214790 9.530852 -5.615816 0
M  V30 END ATOM
M  V30 BEGIN BOND
M  V30 1 1 3 1
M  V30 2 1 6 4
M  V30 3 1 8 4
M  V30 4 1 9 6
M  V30 5 1 9 7
M  V30 6 1 10 1
M  V30 7 1 11 1
M  V30 8 1 12 2
M  V30 9 2 12 7
M  V30 10 1 13 5
M  V30 11 1 13 12
M  V30 12 1 14 9
M  V30 13 1 15 2
M  V30 14 1 15 6
M  V30 15 1 16 3
M  V30 16 1 16 8
M  V30 17 1 1 17 CFG=3
M  V30 18 1 18 2
M  V30 19 1 19 2
M  V30 20 1 20 3
M  V30 21 1 21 3
M  V30 22 1 22 4
M  V30 23 1 23 4
M  V30 24 1 24 5
M  V30 25 1 25 5
M  V30 26 1 26 5
M  V30 27 1 6 27 CFG=3
M  V30 28 1 28 7
M  V30 29 1 29 8
M  V30 30 1 30 8
M  V30 31 1 31 10
M  V30 32 1 32 10
M  V30 33 1 33 10
M  V30 34 1 34 11
M  V30 35 1 35 11
M  V30 36 1 36 13
M  V30 37 1 37 13
M  V30 38 1 38 14
M  V30 39 1 39 14
M  V30 40 1 40 14
M  V30 41 1 41 15
M  V30 42 1 42 15
M  V30 43 1 43 11
M  V30 44 1 9 44 CFG=1
M  V30 END BOND
M  V30 END CTAB
M  END
>  <i_epik_Tot_Q>  (1) 
2

>  <i_epik_Tot_abs_Q>  (1) 
2

>  <i_i_glide_confnum>  (1) 
56

>  <i_i_glide_lignum>  (1) 
21

>  <i_i_glide_posenum>  (1) 
4

>  <i_i_glide_rotatable_bonds>  (1) 
6

>  <i_lp_mmshare_version>  (1) 
72125

>  <i_m_source_file_index>  (1) 
12

>  <i_f3d_flags>  (1) 
0

>  <num_sample>  (1) 
100

>  <b_lp_Chiralities_Consistent>  (1) 
1

>  <r_epik_Charging_Adjusted_Penalty>  (1) 
0.13380573077515515

>  <r_epik_Ionization_Penalty>  (1) 
0.13380575400753034

>  <r_epik_Ionization_Penalty_Charging>  (1) 
0.0076430572427279801

>  <r_epik_Ionization_Penalty_Neutral>  (1) 
0.12616269676480235

>  <r_epik_State_Penalty>  (1) 
0.12616267353242716

>  <r_glide_ring_energy>  (1) 
0

>  <r_i_docking_score>  (1) 
-6.8199419752474446

>  <r_i_glide_ecoul>  (1) 
-9.1765750053845601

>  <r_i_glide_eff_state_penalty>  (1) 
0.12616267353242716

>  <r_i_glide_einternal>  (1) 
11.033888086974065

>  <r_i_glide_emodel>  (1) 
-44.080172105251762

>  <r_i_glide_emodel_strain>  (1) 
2.6063526663686609

>  <r_i_glide_energy>  (1) 
-34.228341039725365

>  <r_i_glide_erotb>  (1) 
1.1639209444696645

>  <r_i_glide_esite>  (1) 
-0.10000000000000001

>  <r_i_glide_evdw>  (1) 
-25.051766034340808

>  <r_i_glide_gscore>  (1) 
-6.9461046487798717

>  <r_i_glide_gscore_strain>  (1) 
0

>  <r_i_glide_hbond>  (1) 
-0.20000000000000001

>  <r_i_glide_ligand_efficiency>  (1) 
-0.42624637345296529

>  <r_i_glide_ligand_efficiency_ln>  (1) 
-1.807761851972683

>  <r_i_glide_ligand_efficiency_sa>  (1) 
-1.0740735567094846

>  <r_i_glide_lipo>  (1) 
-2.2228993228913052

>  <r_i_glide_metal>  (1) 
-0

>  <r_i_glide_rewards>  (1) 
-2.9580517178335066

>  <r_lp_Energy>  (1) 
22.734718999999998

>  <s_epik_Chemistry_Notes>  (1) 
This compound has an imine and may undergo hydrolysis.

>  <s_epik_cmdline>  (1) 
J2VwaWtfcHl0aG9uJywgJy1waHQnLCAnMS4wJywgJy1waCcsICc3LjQnLCAnLXRuJywgJzgnLCAnLW1hJywgJzUwMCcsICctaW1hZScsICc8aW5maWxlLm1hZT4nLCAnLW9tYWUnLCAnPG91dGZpbGUubWFlPic=

>  <s_epik_input>  (1) 
W0NIM11bQ0BASF0oW05IMl0pW0NIMl1TW0NIMl1bQ0gyXVtDQEhdMUMoW0NIM10pPVtDSF1OKFtDSDJdW0NIMl0xKVtDSDJdW0NIM10=

>  <s_glide_docking_method>  (1) 
confgen

>  <s_i_glide_gridfile>  (1) 
gpcr_drd2_6luq_protein_autoprepared_prepared

>  <s_lp_Force_Field>  (1) 
S-OPLS

>  <s_lp_Variant>  (1) 
DiffSBDD_11-1

>  <s_m_source_file>  (1) 
generated_generic_title2_ligand_DiffSBDD_2026-06-23_prepared.sdf

>  <GenAI_Model>  (1) 
DiffSBDD

>  <Protein>  (1) 
generic_title2

$$$$
DiffSBDD_83
     RDKit          3D

  0  0  0  0  0  0  0  0  0  0999 V3000
M  V30 BEGIN CTAB
M  V30 COUNTS 45 47 0 0 1
M  V30 BEGIN ATOM
M  V30 1 C 7.820085 3.850946 -13.312835 0
M  V30 2 C 12.400436 8.864968 -3.985063 0
M  V30 3 C 10.985247 8.715012 -5.968050 0
M  V30 4 C 9.430139 7.087455 -7.751746 0
M  V30 5 F 12.746828 6.923966 -2.632099 0
M  V30 6 C 11.806600 9.470056 -5.110025 0
M  V30 7 C 11.352920 6.743240 -4.569702 0
M  V30 8 C 7.722665 5.875971 -12.206397 0 CFG=1
M  V30 9 C 12.174203 7.504155 -3.713708 0
M  V30 10 N 7.446384 4.595362 -14.252547 0
M  V30 11 N 8.975414 7.533001 -10.785020 0 CFG=2 CHG=1
M  V30 12 C 7.971769 4.382225 -11.930766 0 CFG=2
M  V30 13 C 10.752288 7.341771 -5.699144 0
M  V30 14 C 9.308491 3.986443 -11.283718 0
M  V30 15 C 8.758642 8.268019 -12.023808 0
M  V30 16 O 9.940924 6.576539 -6.520096 0
M  V30 17 C 10.496146 6.955446 -8.855309 0
M  V30 18 F 13.192672 9.590394 -3.169837 0
M  V30 19 C 5.722571 6.254638 -13.789109 0
M  V30 20 C 10.261413 7.816213 -10.107531 0
M  V30 21 C 8.937864 6.779915 -12.031415 0 CFG=2
M  V30 22 C 7.215076 5.908679 -13.682528 0 CFG=1
M  V30 23 H 8.052173 2.791498 -13.451674 0
M  V30 24 H 10.538984 9.190263 -6.824366 0
M  V30 25 H 9.019559 8.092329 -7.661757 0
M  V30 26 H 8.575297 6.467310 -8.023225 0
M  V30 27 H 11.983174 10.514694 -5.316047 0
M  V30 28 H 11.178741 5.698437 -4.359470 0
M  V30 29 H 6.934710 6.234788 -11.540152 0
M  V30 30 H 9.375415 2.903646 -11.191929 0
M  V30 31 H 10.174077 4.301944 -11.867371 0
M  V30 32 H 9.390298 4.395635 -10.278951 0
M  V30 33 H 9.598277 8.876959 -12.333850 0
M  V30 34 H 7.765060 8.711879 -12.022299 0
M  V30 35 H 10.575308 5.907020 -9.128510 0
M  V30 36 H 11.469754 7.228959 -8.448280 0
M  V30 37 H 5.517023 7.242951 -13.377672 0
M  V30 38 H 5.392761 6.254985 -14.828575 0
M  V30 39 H 5.108438 5.534303 -13.247977 0
M  V30 40 H 11.095830 7.687474 -10.798325 0
M  V30 41 H 10.265368 8.863791 -9.809882 0
M  V30 42 H 9.906504 6.423548 -12.374485 0
M  V30 43 H 7.774744 6.646628 -14.260236 0
M  V30 44 H 8.106639 7.590255 -10.219504 0
M  V30 45 H 7.149534 3.990112 -11.331081 0
M  V30 END ATOM
M  V30 BEGIN BOND
M  V30 1 1 6 2
M  V30 2 2 6 3
M  V30 3 2 9 2
M  V30 4 1 9 5
M  V30 5 1 9 7
M  V30 6 2 10 1
M  V30 7 1 12 1
M  V30 8 1 12 8
M  V30 9 1 13 3
M  V30 10 2 13 7
M  V30 11 1 14 12
M  V30 12 1 15 11
M  V30 13 1 16 4
M  V30 14 1 16 13
M  V30 15 1 17 4
M  V30 16 1 18 2
M  V30 17 1 20 11
M  V30 18 1 20 17
M  V30 19 1 21 8
M  V30 20 1 21 11
M  V30 21 1 21 15
M  V30 22 1 22 8
M  V30 23 1 22 10
M  V30 24 1 22 19
M  V30 25 1 23 1
M  V30 26 1 24 3
M  V30 27 1 25 4
M  V30 28 1 26 4
M  V30 29 1 27 6
M  V30 30 1 28 7
M  V30 31 1 8 29 CFG=1
M  V30 32 1 30 14
M  V30 33 1 31 14
M  V30 34 1 32 14
M  V30 35 1 33 15
M  V30 36 1 34 15
M  V30 37 1 35 17
M  V30 38 1 36 17
M  V30 39 1 37 19
M  V30 40 1 38 19
M  V30 41 1 39 19
M  V30 42 1 40 20
M  V30 43 1 41 20
M  V30 44 1 21 42 CFG=3
M  V30 45 1 22 43 CFG=3
M  V30 46 1 11 44 CFG=1
M  V30 47 1 12 45 CFG=1
M  V30 END BOND
M  V30 END CTAB
M  END
>  <i_epik_Tot_Q>  (1) 
1

>  <i_epik_Tot_abs_Q>  (1) 
1

>  <i_i_glide_confnum>  (1) 
55

>  <i_i_glide_lignum>  (1) 
148

>  <i_i_glide_posenum>  (1) 
7

>  <i_i_glide_rotatable_bonds>  (1) 
6

>  <i_lp_mmshare_version>  (1) 
72125

>  <i_m_source_file_index>  (1) 
84

>  <i_f3d_flags>  (1) 
0

>  <num_sample>  (1) 
100

>  <b_lp_Chiralities_Consistent>  (1) 
1

>  <r_epik_Charging_Adjusted_Penalty>  (1) 
0.43105765877043739

>  <r_epik_Ionization_Penalty>  (1) 
0.36079924242796862

>  <r_epik_Ionization_Penalty_Charging>  (1) 
0.10499320228047652

>  <r_epik_Ionization_Penalty_Neutral>  (1) 
0.25580604014749209

>  <r_epik_State_Penalty>  (1) 
0.32606445648996085

>  <r_glide_ring_energy>  (1) 
0

>  <r_i_docking_score>  (1) 
-6.782954664738118

>  <r_i_glide_ecoul>  (1) 
-8.2825973862379545

>  <r_i_glide_eff_state_penalty>  (1) 
0.32606445648996085

>  <r_i_glide_einternal>  (1) 
4.487395097926262

>  <r_i_glide_emodel>  (1) 
-60.572365081085898

>  <r_i_glide_emodel_strain>  (1) 
0.027600660744326433

>  <r_i_glide_energy>  (1) 
-39.289228633000072

>  <r_i_glide_erotb>  (1) 
0.96718860002963114

>  <r_i_glide_esite>  (1) 
-0.10000000000000001

>  <r_i_glide_evdw>  (1) 
-31.006631246762115

>  <r_i_glide_gscore>  (1) 
-7.1090191212280791

>  <r_i_glide_gscore_strain>  (1) 
0

>  <r_i_glide_hbond>  (1) 
-0.15721410001934061

>  <r_i_glide_ligand_efficiency>  (1) 
-0.30831612112445989

>  <r_i_glide_ligand_efficiency_ln>  (1) 
-1.6580015343448771

>  <r_i_glide_ligand_efficiency_sa>  (1) 
-0.86391389766584703

>  <r_i_glide_lipo>  (1) 
-2.2042878575694651

>  <r_i_glide_metal>  (1) 
-0

>  <r_i_glide_rewards>  (1) 
-2.821984593395106

>  <r_lp_Energy>  (1) 
24.635403999999998

>  <r_lp_tautomer_probability>  (1) 
0.99998600000000004

>  <s_epik_Chemistry_Notes>  (1) 
This compound has an imine and may undergo hydrolysis.

>  <s_epik_cmdline>  (1) 
J2VwaWtfcHl0aG9uJywgJy1waHQnLCAnMS4wJywgJy1waCcsICc3LjQnLCAnLXRuJywgJzgnLCAnLW1hJywgJzUwMCcsICctaW1hZScsICc8aW5maWxlLm1hZT4nLCAnLW9tYWUnLCAnPG91dGZpbGUubWFlPic=

>  <s_epik_input>  (1) 
W0NIM11bQ0BASF0xTj1bQ0hdW0NAQEhdKFtDSDNdKVtDQEhdMVtDQEhdMltDSDJdTjJbQ0gyXVtDSDJdW0NIMl1PYyhbY0hdYzNGKVtjSF1bY0hdYzNG

>  <s_glide_docking_method>  (1) 
confgen

>  <s_i_glide_gridfile>  (1) 
gpcr_drd2_6luq_protein_autoprepared_prepared

>  <s_lp_Force_Field>  (1) 
S-OPLS

>  <s_lp_Variant>  (1) 
DiffSBDD_83-2

>  <s_m_source_file>  (1) 
generated_generic_title2_ligand_DiffSBDD_2026-06-23_prepared.sdf

>  <GenAI_Model>  (1) 
DiffSBDD

>  <Protein>  (1) 
generic_title2

$$$$
DiffSBDD_52
     RDKit          3D

  0  0  0  0  0  0  0  0  0  0999 V3000
M  V30 BEGIN CTAB
M  V30 COUNTS 51 54 0 0 1
M  V30 BEGIN ATOM
M  V30 1 C 12.318939 9.462784 -3.427965 0
M  V30 2 F 12.975408 8.312717 -1.368071 0
M  V30 3 C 8.246628 6.368975 -11.561141 0 CFG=1
M  V30 4 C 8.522241 3.567593 -12.364723 0
M  V30 5 C 8.335447 4.146053 -10.978379 0 CFG=2
M  V30 6 C 12.109846 6.989129 -3.043681 0
M  V30 7 C 9.776708 7.069760 -6.899693 0
M  V30 8 C 6.410514 4.393220 -13.657139 0
M  V30 9 C 12.464684 8.204428 -2.603474 0
M  V30 10 N 9.179529 5.339271 -11.089418 0 CFG=2 CHG=1
M  V30 11 C 11.124436 8.021981 -5.171458 0 CFG=2
M  V30 12 O 8.975398 7.541707 -11.278792 0
M  V30 13 C 6.041238 5.685307 -14.383005 0
M  V30 14 O 10.981106 7.753686 -6.557819 0
M  V30 15 C 12.047047 9.233727 -4.926160 0
M  V30 16 C 7.910461 4.553639 -13.408875 0 CFG=1
M  V30 17 C 6.864133 6.782419 -13.700607 0
M  V30 18 C 10.052139 6.258196 -8.165969 0
M  V30 19 C 11.508874 6.730706 -4.411034 0
M  V30 20 C 9.252321 4.587667 -9.863404 0 CFG=1
M  V30 21 C 8.869556 5.390755 -8.634226 0
M  V30 22 C 8.084769 6.076629 -13.080357 0 CFG=1
M  V30 23 H 11.526580 10.063927 -2.980655 0
M  V30 24 H 13.259698 9.990227 -3.319915 0
M  V30 25 H 7.289719 6.390220 -11.039202 0
M  V30 26 H 8.039223 2.592397 -12.425743 0
M  V30 27 H 9.583312 3.395237 -12.558864 0
M  V30 28 H 7.288472 4.296150 -10.713509 0
M  V30 29 H 12.243305 6.128652 -2.403584 0
M  V30 30 H 8.975705 7.792891 -7.056848 0
M  V30 31 H 9.444410 6.391914 -6.113515 0
M  V30 32 H 5.864638 4.325367 -12.714893 0
M  V30 33 H 6.175535 3.505785 -14.245438 0
M  V30 34 H 10.175410 8.347870 -4.786976 0
M  V30 35 H 8.457017 7.993196 -10.614933 0
M  V30 36 H 4.975404 5.890992 -14.348284 0
M  V30 37 H 6.327846 5.609592 -15.432867 0
M  V30 38 H 12.989221 9.190219 -5.468937 0
M  V30 39 H 11.564854 10.124481 -5.331288 0
M  V30 40 H 8.400314 4.359923 -14.365007 0
M  V30 41 H 6.260594 7.264422 -12.929937 0
M  V30 42 H 7.158021 7.559960 -14.407083 0
M  V30 43 H 10.912619 5.614481 -7.980462 0
M  V30 44 H 10.350467 6.942406 -8.960328 0
M  V30 45 H 10.621870 6.116916 -4.254992 0
M  V30 46 H 12.175414 6.116488 -5.008109 0
M  V30 47 H 10.175359 4.028078 -9.775810 0
M  V30 48 H 7.981771 5.990227 -8.819976 0
M  V30 49 H 8.596420 4.690166 -7.845361 0
M  V30 50 H 8.993751 6.390228 -13.585024 0
M  V30 51 H 9.950869 5.165523 -11.716756 0
M  V30 END ATOM
M  V30 BEGIN BOND
M  V30 1 1 5 4
M  V30 2 1 9 1
M  V30 3 1 9 2
M  V30 4 2 9 6
M  V30 5 1 10 3
M  V30 6 1 10 5
M  V30 7 1 12 3
M  V30 8 1 13 8
M  V30 9 1 14 7
M  V30 10 1 14 11
M  V30 11 1 15 1
M  V30 12 1 15 11
M  V30 13 1 16 4
M  V30 14 1 16 8
M  V30 15 1 17 13
M  V30 16 1 18 7
M  V30 17 1 19 6
M  V30 18 1 19 11
M  V30 19 1 20 5
M  V30 20 1 20 10
M  V30 21 1 21 18
M  V30 22 1 21 20
M  V30 23 1 22 3
M  V30 24 1 22 16
M  V30 25 1 22 17
M  V30 26 1 23 1
M  V30 27 1 24 1
M  V30 28 1 3 25 CFG=1
M  V30 29 1 26 4
M  V30 30 1 27 4
M  V30 31 1 5 28 CFG=1
M  V30 32 1 29 6
M  V30 33 1 30 7
M  V30 34 1 31 7
M  V30 35 1 32 8
M  V30 36 1 33 8
M  V30 37 1 11 34 CFG=1
M  V30 38 1 35 12
M  V30 39 1 36 13
M  V30 40 1 37 13
M  V30 41 1 38 15
M  V30 42 1 39 15
M  V30 43 1 16 40 CFG=3
M  V30 44 1 41 17
M  V30 45 1 42 17
M  V30 46 1 43 18
M  V30 47 1 44 18
M  V30 48 1 45 19
M  V30 49 1 46 19
M  V30 50 1 20 47 CFG=1
M  V30 51 1 48 21
M  V30 52 1 49 21
M  V30 53 1 22 50 CFG=3
M  V30 54 1 10 51 CFG=3
M  V30 END BOND
M  V30 END CTAB
M  END
>  <i_epik_Tot_Q>  (1) 
1

>  <i_epik_Tot_abs_Q>  (1) 
1

>  <i_i_glide_confnum>  (1) 
102

>  <i_i_glide_lignum>  (1) 
85

>  <i_i_glide_posenum>  (1) 
156

>  <i_i_glide_rotatable_bonds>  (1) 
6

>  <i_lp_mmshare_version>  (1) 
72125

>  <i_m_source_file_index>  (1) 
53

>  <i_f3d_flags>  (1) 
0

>  <num_sample>  (1) 
100

>  <b_lp_Chiralities_Consistent>  (1) 
1

>  <r_epik_Charging_Adjusted_Penalty>  (1) 
0.54296395038273226

>  <r_epik_Ionization_Penalty>  (1) 
0.53316988730295212

>  <r_epik_Ionization_Penalty_Charging>  (1) 
0.022916544562111445

>  <r_epik_Ionization_Penalty_Neutral>  (1) 
0.51025334274084067

>  <r_epik_State_Penalty>  (1) 
0.52004740582062081

>  <r_glide_ring_energy>  (1) 
0

>  <r_i_docking_score>  (1) 
-6.7822926771792673

>  <r_i_glide_ecoul>  (1) 
-7.5933614377632663

>  <r_i_glide_eff_state_penalty>  (1) 
0.52004740582062081

>  <r_i_glide_einternal>  (1) 
1.9198613141112446

>  <r_i_glide_emodel>  (1) 
-54.618255037682943

>  <r_i_glide_emodel_strain>  (1) 
0.42098304587290158

>  <r_i_glide_energy>  (1) 
-35.769616941759097

>  <r_i_glide_erotb>  (1) 
0.76914675799504084

>  <r_i_glide_esite>  (1) 
-0.082335597736805988

>  <r_i_glide_evdw>  (1) 
-28.176255503995829

>  <r_i_glide_gscore>  (1) 
-7.3023400829998879

>  <r_i_glide_gscore_strain>  (1) 
0

>  <r_i_glide_hbond>  (1) 
-0.14718889894323192

>  <r_i_glide_ligand_efficiency>  (1) 
-0.3082860307808758

>  <r_i_glide_ligand_efficiency_ln>  (1) 
-1.657839720438911

>  <r_i_glide_ligand_efficiency_sa>  (1) 
-0.86382958333965132

>  <r_i_glide_lipo>  (1) 
-2.7761507012746871

>  <r_i_glide_metal>  (1) 
-0

>  <r_i_glide_rewards>  (1) 
-2.5179946521759224

>  <r_lp_Energy>  (1) 
32.431187000000001

>  <s_epik_Chemistry_Notes>  (1) 
This compound contains an acetal/aminal-like group ( X-CH(R)-Y where X, Y are N, S, or O) that may be acid/base labile, releasing an aldehyde.

>  <s_epik_cmdline>  (1) 
J2VwaWtfcHl0aG9uJywgJy1waHQnLCAnMS4wJywgJy1waCcsICc3LjQnLCAnLXRuJywgJzgnLCAnLW1hJywgJzUwMCcsICctaW1hZScsICc8aW5maWxlLm1hZT4nLCAnLW9tYWUnLCAnPG91dGZpbGUubWFlPic=

>  <s_epik_input>  (1) 
RkMxPVtDSF1bQ0gyXVtDQEBIXShbQ0gyXVtDSDJdMSlPW0NIMl1bQ0gyXVtDSDJdW0NAQEhdMk4oW0NASF0yMylbQ0BASF0oW09IXSlbQ0BIXTRbQ0BASF0oW0NIMl0zKVtDSDJdW0NIMl1bQ0gyXTQ=

>  <s_glide_docking_method>  (1) 
confgen

>  <s_i_glide_gridfile>  (1) 
gpcr_drd2_6luq_protein_autoprepared_prepared

>  <s_lp_Force_Field>  (1) 
S-OPLS

>  <s_lp_Variant>  (1) 
DiffSBDD_52-4

>  <s_m_source_file>  (1) 
generated_generic_title2_ligand_DiffSBDD_2026-06-23_prepared.sdf

>  <GenAI_Model>  (1) 
DiffSBDD

>  <Protein>  (1) 
generic_title2

$$$$
DiffSBDD_29
     RDKit          3D

  0  0  0  0  0  0  0  0  0  0999 V3000
M  V30 BEGIN CTAB
M  V30 COUNTS 62 63 0 0 1
M  V30 BEGIN ATOM
M  V30 1 C 9.375296 6.634952 -8.367437 0
M  V30 2 C 6.611767 4.951248 -12.798085 0
M  V30 3 C 9.626861 6.917755 -9.858162 0
M  V30 4 O 12.851779 9.190228 -7.008819 0
M  V30 5 C 11.696032 8.840722 -6.785372 0
M  V30 6 F 11.787647 5.990228 -3.159928 0
M  V30 7 C 7.052171 5.737968 -15.182722 0
M  V30 8 C 12.279879 8.317361 -2.662457 0
M  V30 9 C 6.023821 6.882342 -15.124792 0
M  V30 10 C 7.664609 5.425171 -13.811550 0
M  V30 11 N 7.203796 4.493711 -11.549521 0
M  V30 12 C 11.926463 9.935703 -4.492055 0
M  V30 13 O 6.082305 3.990212 -10.784999 0
M  V30 14 C 4.940120 6.455474 -17.419707 0
M  V30 15 C 5.653662 7.452978 -16.497980 0
M  V30 16 C 9.248707 5.708759 -10.733403 0
M  V30 17 C 11.787990 7.237780 -3.600603 0
M  V30 18 C 11.049055 7.479738 -10.033957 0
M  V30 19 C 11.227714 8.833380 -5.318810 0 CFG=2
M  V30 20 C 11.712783 9.676062 -3.007778 0
M  V30 21 N 10.854860 8.500106 -7.791472 0
M  V30 22 N 11.375417 7.483228 -4.785017 0
M  V30 23 N 7.774155 5.590230 -10.754383 0 CHG=1
M  V30 24 C 9.527182 7.916399 -7.543981 0
M  V30 25 C 11.203206 8.758385 -9.201560 0
M  V30 26 C 4.584624 7.070948 -18.775212 0
M  V30 27 H 8.375753 6.232585 -8.203407 0
M  V30 28 H 10.072424 5.876237 -8.006802 0
M  V30 29 H 6.067889 4.113087 -13.238141 0
M  V30 30 H 5.878210 5.734879 -12.601775 0
M  V30 31 H 8.975422 7.734300 -10.169349 0
M  V30 32 H 7.858258 5.991729 -15.871262 0
M  V30 33 H 6.585907 4.839153 -15.587954 0
M  V30 34 H 12.011418 8.051884 -1.639887 0
M  V30 35 H 13.369398 8.343871 -2.700756 0
M  V30 36 H 5.120841 6.543923 -14.618677 0
M  V30 37 H 6.429346 7.693646 -14.520312 0
M  V30 38 H 8.176098 6.314762 -13.446381 0
M  V30 39 H 8.427413 4.654524 -13.934564 0
M  V30 40 H 12.998922 9.989526 -4.683330 0
M  V30 41 H 11.493129 10.892196 -4.785003 0
M  V30 42 H 5.557786 4.757561 -10.602779 0
M  V30 43 H 5.578080 5.590104 -17.592303 0
M  V30 44 H 4.035419 6.083465 -16.936559 0
M  V30 45 H 5.018659 8.328893 -16.358476 0
M  V30 46 H 6.563023 7.805589 -16.977882 0
M  V30 47 H 9.687119 4.787178 -10.348377 0
M  V30 48 H 9.619951 5.845218 -11.748835 0
M  V30 49 H 11.809303 6.790229 -9.685568 0
M  V30 50 H 11.257401 7.682616 -11.085139 0
M  V30 51 H 10.175435 9.103952 -5.294013 0
M  V30 52 H 10.653745 9.717929 -2.794776 0
M  V30 53 H 12.175403 10.405084 -2.361074 0
M  V30 54 H 7.371490 6.463356 -11.072268 0
M  V30 55 H 8.769047 8.647863 -7.825934 0
M  V30 56 H 9.317539 7.640381 -6.512887 0
M  V30 57 H 10.529182 9.523487 -9.584213 0
M  V30 58 H 12.211605 9.153702 -9.339097 0
M  V30 59 H 4.175437 6.314837 -19.443922 0
M  V30 60 H 3.848057 7.867818 -18.667233 0
M  V30 61 H 5.465448 7.493936 -19.259816 0
M  V30 62 H 7.463340 5.445452 -9.802815 0
M  V30 END ATOM
M  V30 BEGIN BOND
M  V30 1 1 3 1
M  V30 2 2 5 4
M  V30 3 1 9 7
M  V30 4 1 10 2
M  V30 5 1 10 7
M  V30 6 1 11 2
M  V30 7 1 13 11
M  V30 8 1 15 9
M  V30 9 1 15 14
M  V30 10 1 16 3
M  V30 11 1 17 6
M  V30 12 1 17 8
M  V30 13 1 18 3
M  V30 14 1 19 5
M  V30 15 1 19 12
M  V30 16 1 20 8
M  V30 17 1 20 12
M  V30 18 1 21 5
M  V30 19 2 22 17
M  V30 20 1 22 19
M  V30 21 1 23 11
M  V30 22 1 23 16
M  V30 23 1 24 1
M  V30 24 1 24 21
M  V30 25 1 25 18
M  V30 26 1 25 21
M  V30 27 1 26 14
M  V30 28 1 27 1
M  V30 29 1 28 1
M  V30 30 1 29 2
M  V30 31 1 30 2
M  V30 32 1 31 3
M  V30 33 1 32 7
M  V30 34 1 33 7
M  V30 35 1 34 8
M  V30 36 1 35 8
M  V30 37 1 36 9
M  V30 38 1 37 9
M  V30 39 1 38 10
M  V30 40 1 39 10
M  V30 41 1 40 12
M  V30 42 1 41 12
M  V30 43 1 42 13
M  V30 44 1 43 14
M  V30 45 1 44 14
M  V30 46 1 45 15
M  V30 47 1 46 15
M  V30 48 1 47 16
M  V30 49 1 48 16
M  V30 50 1 49 18
M  V30 51 1 50 18
M  V30 52 1 19 51 CFG=3
M  V30 53 1 52 20
M  V30 54 1 53 20
M  V30 55 1 54 23
M  V30 56 1 55 24
M  V30 57 1 56 24
M  V30 58 1 57 25
M  V30 59 1 58 25
M  V30 60 1 59 26
M  V30 61 1 60 26
M  V30 62 1 61 26
M  V30 63 1 62 23
M  V30 END BOND
M  V30 END CTAB
M  END
>  <i_epik_Tot_Q>  (1) 
1

>  <i_epik_Tot_abs_Q>  (1) 
1

>  <i_i_glide_confnum>  (1) 
70

>  <i_i_glide_lignum>  (1) 
50

>  <i_i_glide_posenum>  (1) 
242

>  <i_i_glide_rotatable_bonds>  (1) 
12

>  <i_lp_mmshare_version>  (1) 
72125

>  <i_m_source_file_index>  (1) 
30

>  <i_f3d_flags>  (1) 
0

>  <num_sample>  (1) 
100

>  <b_lp_Chiralities_Consistent>  (1) 
1

>  <r_epik_Charging_Adjusted_Penalty>  (1) 
1.4390288097636857e-06

>  <r_epik_Ionization_Penalty>  (1) 
0.023192080520664203

>  <r_epik_Ionization_Penalty_Charging>  (1) 
4.1514280511365775e-07

>  <r_epik_Ionization_Penalty_Neutral>  (1) 
0.023191665377859088

>  <r_epik_State_Penalty>  (1) 
1.023886004650028e-06

>  <r_glide_ring_energy>  (1) 
0

>  <r_i_docking_score>  (1) 
-6.7814898516323359

>  <r_i_glide_ecoul>  (1) 
-4.8797311436911466

>  <r_i_glide_eff_state_penalty>  (1) 
1.023886004650028e-06

>  <r_i_glide_einternal>  (1) 
4.1025496645918329

>  <r_i_glide_emodel>  (1) 
-59.302746728479903

>  <r_i_glide_emodel_strain>  (1) 
0.13841406682885093

>  <r_i_glide_energy>  (1) 
-36.764897846266052

>  <r_i_glide_erotb>  (1) 
1.3985499384426772

>  <r_i_glide_esite>  (1) 
-0.12743884556493812

>  <r_i_glide_evdw>  (1) 
-31.885166702574907

>  <r_i_glide_gscore>  (1) 
-6.7814908755183403

>  <r_i_glide_gscore_strain>  (1) 
0

>  <r_i_glide_hbond>  (1) 
-0.031175535840240617

>  <r_i_glide_ligand_efficiency>  (1) 
-0.26082653275508982

>  <r_i_glide_ligand_efficiency_ln>  (1) 
-1.5926106397727058

>  <r_i_glide_ligand_efficiency_sa>  (1) 
-0.77269757782328008

>  <r_i_glide_lipo>  (1) 
-2.9089340850425791

>  <r_i_glide_metal>  (1) 
-0

>  <r_i_glide_rewards>  (1) 
-2.7862743408308415

>  <r_lp_Energy>  (1) 
24.237140999999998

>  <s_epik_Chemistry_Notes>  (1) 
This compound has an imine and may undergo hydrolysis. This compound has a N-S or N-O group and may undergo hydrolysis at high or low pH.

>  <s_epik_cmdline>  (1) 
J2VwaWtfcHl0aG9uJywgJy1waHQnLCAnMS4wJywgJy1waCcsICc3LjQnLCAnLXRuJywgJzgnLCAnLW1hJywgJzUwMCcsICctaW1hZScsICc8aW5maWxlLm1hZT4nLCAnLW9tYWUnLCAnPG91dGZpbGUubWFlPic=

>  <s_epik_input>  (1) 
RkMxPU5bQ0BASF0oW0NIMl1bQ0gyXVtDSDJdMSlDKD1PKU4oW0NIMl1bQ0gyXTIpW0NIMl1bQ0gyXVtDSF0yW0NIMl1bTkhdTihbT0hdKVtDSDJdW0NIMl1bQ0gyXVtDSDJdW0NIMl1bQ0gyXVtDSDNd

>  <s_glide_docking_method>  (1) 
confgen

>  <s_i_glide_gridfile>  (1) 
gpcr_drd2_6luq_protein_autoprepared_prepared

>  <s_lp_Force_Field>  (1) 
S-OPLS

>  <s_lp_Variant>  (1) 
DiffSBDD_29-1

>  <s_m_source_file>  (1) 
generated_generic_title2_ligand_DiffSBDD_2026-06-23_prepared.sdf

>  <GenAI_Model>  (1) 
DiffSBDD

>  <Protein>  (1) 
generic_title2

$$$$
DiffSBDD_11
     RDKit          3D

  0  0  0  0  0  0  0  0  0  0999 V3000
M  V30 BEGIN CTAB
M  V30 COUNTS 44 44 0 0 1
M  V30 BEGIN ATOM
M  V30 1 C 8.282326 5.713821 -11.361886 0 CFG=1
M  V30 2 C 11.110593 6.284774 -4.723449 0
M  V30 3 C 9.277028 6.796514 -10.912939 0
M  V30 4 C 10.895738 8.714341 -7.725372 0
M  V30 5 C 10.641208 6.390227 -1.599436 0
M  V30 6 C 11.395080 7.993865 -6.451472 0 CFG=1
M  V30 7 C 12.175406 8.354387 -3.985024 0
M  V30 8 C 10.997728 7.928138 -9.045776 0
M  V30 9 C 11.998911 8.962204 -5.373237 0 CFG=2
M  V30 10 C 8.957399 4.354496 -11.596636 0
M  V30 11 N 7.187992 5.590227 -10.385021 0 CHG=1
M  V30 12 N 11.775409 7.146215 -3.713195 0 CHG=1
M  V30 13 C 11.958380 6.553443 -2.372580 0
M  V30 14 C 11.183380 10.244410 -5.213242 0
M  V30 15 C 10.377368 7.054853 -5.816986 0
M  V30 16 S 9.792423 6.581604 -9.186152 0
M  V30 17 H 7.839176 6.044756 -12.301656 0
M  V30 18 H 11.887623 5.648999 -5.149895 0
M  V30 19 H 10.415468 5.628626 -4.207887 0
M  V30 20 H 10.154848 6.805099 -11.560736 0
M  V30 21 H 8.817241 7.782021 -11.002307 0
M  V30 22 H 9.878177 9.078343 -7.579727 0
M  V30 23 H 11.523988 9.590208 -7.877771 0
M  V30 24 H 10.777244 5.688030 -0.785027 0
M  V30 25 H 9.830735 5.990241 -2.205733 0
M  V30 26 H 10.307971 7.339806 -1.185015 0
M  V30 27 H 12.175423 7.332722 -6.801523 0
M  V30 28 H 12.644192 8.919877 -3.185851 0
M  V30 29 H 10.820730 8.625273 -9.864439 0
M  V30 30 H 12.002528 7.532016 -9.200026 0
M  V30 31 H 9.755903 4.431331 -12.335902 0
M  V30 32 H 8.245995 3.613701 -11.962814 0
M  V30 33 H 9.397715 3.964793 -10.678621 0
M  V30 34 H 7.500997 5.051441 -9.591528 0
M  V30 35 H 6.366652 5.168780 -10.791048 0
M  V30 36 H 12.438194 5.590206 -2.530743 0
M  V30 37 H 12.661324 7.164550 -1.804122 0
M  V30 38 H 11.375406 10.790246 -4.297551 0
M  V30 39 H 10.141626 9.990214 -5.185015 0
M  V30 40 H 11.355423 10.918704 -6.049616 0
M  V30 41 H 9.528160 7.612073 -5.430033 0
M  V30 42 H 9.975472 6.334528 -6.524247 0
M  V30 43 H 6.975415 6.543052 -10.027218 0
M  V30 44 H 12.990105 9.263194 -5.712802 0
M  V30 END ATOM
M  V30 BEGIN BOND
M  V30 1 1 3 1
M  V30 2 1 6 4
M  V30 3 1 8 4
M  V30 4 1 9 6
M  V30 5 1 9 7
M  V30 6 1 10 1
M  V30 7 1 11 1
M  V30 8 1 12 2
M  V30 9 2 12 7
M  V30 10 1 13 5
M  V30 11 1 13 12
M  V30 12 1 14 9
M  V30 13 1 15 2
M  V30 14 1 15 6
M  V30 15 1 16 3
M  V30 16 1 16 8
M  V30 17 1 1 17 CFG=3
M  V30 18 1 18 2
M  V30 19 1 19 2
M  V30 20 1 20 3
M  V30 21 1 21 3
M  V30 22 1 22 4
M  V30 23 1 23 4
M  V30 24 1 24 5
M  V30 25 1 25 5
M  V30 26 1 26 5
M  V30 27 1 6 27 CFG=3
M  V30 28 1 28 7
M  V30 29 1 29 8
M  V30 30 1 30 8
M  V30 31 1 31 10
M  V30 32 1 32 10
M  V30 33 1 33 10
M  V30 34 1 34 11
M  V30 35 1 35 11
M  V30 36 1 36 13
M  V30 37 1 37 13
M  V30 38 1 38 14
M  V30 39 1 39 14
M  V30 40 1 40 14
M  V30 41 1 41 15
M  V30 42 1 42 15
M  V30 43 1 43 11
M  V30 44 1 9 44 CFG=3
M  V30 END BOND
M  V30 END CTAB
M  END
>  <i_epik_Tot_Q>  (1) 
2

>  <i_epik_Tot_abs_Q>  (1) 
2

>  <i_i_glide_confnum>  (1) 
108

>  <i_i_glide_lignum>  (1) 
22

>  <i_i_glide_posenum>  (1) 
247

>  <i_i_glide_rotatable_bonds>  (1) 
6

>  <i_lp_mmshare_version>  (1) 
72125

>  <i_m_source_file_index>  (1) 
12

>  <i_f3d_flags>  (1) 
0

>  <num_sample>  (1) 
100

>  <b_lp_Chiralities_Consistent>  (1) 
1

>  <r_epik_Charging_Adjusted_Penalty>  (1) 
0.13380573077515515

>  <r_epik_Ionization_Penalty>  (1) 
0.13380575400753034

>  <r_epik_Ionization_Penalty_Charging>  (1) 
0.0076430572427279801

>  <r_epik_Ionization_Penalty_Neutral>  (1) 
0.12616269676480235

>  <r_epik_State_Penalty>  (1) 
0.12616267353242716

>  <r_glide_ring_energy>  (1) 
0

>  <r_i_docking_score>  (1) 
-6.7804601114052385

>  <r_i_glide_ecoul>  (1) 
-9.2848152315932957

>  <r_i_glide_eff_state_penalty>  (1) 
0.12616267353242716

>  <r_i_glide_einternal>  (1) 
16.932958315943587

>  <r_i_glide_emodel>  (1) 
-37.057987868864004

>  <r_i_glide_emodel_strain>  (1) 
0.98344086434492439

>  <r_i_glide_energy>  (1) 
-31.08952178549416

>  <r_i_glide_erotb>  (1) 
1.1639209444696645

>  <r_i_glide_esite>  (1) 
-0.10000000000000001

>  <r_i_glide_evdw>  (1) 
-21.804706553900864

>  <r_i_glide_gscore>  (1) 
-6.9066227849376656

>  <r_i_glide_gscore_strain>  (1) 
0

>  <r_i_glide_hbond>  (1) 
-0.14695623271402408

>  <r_i_glide_ligand_efficiency>  (1) 
-0.42377875696282741

>  <r_i_glide_ligand_efficiency_ln>  (1) 
-1.7972963952931735

>  <r_i_glide_ligand_efficiency_sa>  (1) 
-1.0678555527914997

>  <r_i_glide_lipo>  (1) 
-2.1888906318997314

>  <r_i_glide_metal>  (1) 
-0

>  <r_i_glide_rewards>  (1) 
-3.151739252359536

>  <r_lp_Energy>  (1) 
22.875516999999999

>  <s_epik_Chemistry_Notes>  (1) 
This compound has an imine and may undergo hydrolysis.

>  <s_epik_cmdline>  (1) 
J2VwaWtfcHl0aG9uJywgJy1waHQnLCAnMS4wJywgJy1waCcsICc3LjQnLCAnLXRuJywgJzgnLCAnLW1hJywgJzUwMCcsICctaW1hZScsICc8aW5maWxlLm1hZT4nLCAnLW9tYWUnLCAnPG91dGZpbGUubWFlPic=

>  <s_epik_input>  (1) 
W0NIM11bQ0BASF0oW05IMl0pW0NIMl1TW0NIMl1bQ0gyXVtDQEhdMUMoW0NIM10pPVtDSF1OKFtDSDJdW0NIMl0xKVtDSDJdW0NIM10=

>  <s_glide_docking_method>  (1) 
confgen

>  <s_i_glide_gridfile>  (1) 
gpcr_drd2_6luq_protein_autoprepared_prepared

>  <s_lp_Force_Field>  (1) 
S-OPLS

>  <s_lp_Variant>  (1) 
DiffSBDD_11-2

>  <s_m_source_file>  (1) 
generated_generic_title2_ligand_DiffSBDD_2026-06-23_prepared.sdf

>  <GenAI_Model>  (1) 
DiffSBDD

>  <Protein>  (1) 
generic_title2

$$$$
DiffSBDD_83
     RDKit          3D

  0  0  0  0  0  0  0  0  0  0999 V3000
M  V30 BEGIN CTAB
M  V30 COUNTS 45 47 0 0 1
M  V30 BEGIN ATOM
M  V30 1 C 6.175407 4.122485 -11.933954 0
M  V30 2 C 12.498621 8.543598 -3.560431 0
M  V30 3 C 11.342624 8.810985 -5.691129 0
M  V30 4 C 9.470616 7.736698 -7.554534 0
M  V30 5 F 12.519908 6.405286 -2.491621 0
M  V30 6 C 12.103146 9.353391 -4.640787 0
M  V30 7 C 11.375283 6.635033 -4.581587 0
M  V30 8 C 7.161524 6.204995 -11.995744 0 CFG=1
M  V30 9 C 12.136820 7.185589 -3.530421 0
M  V30 10 N 6.289852 4.274501 -13.175959 0
M  V30 11 N 8.975413 7.417536 -10.785019 0 CFG=2 CHG=1
M  V30 12 C 6.568708 5.203477 -10.990692 0 CFG=2
M  V30 13 C 10.971158 7.443597 -5.664641 0
M  V30 14 C 7.476973 4.736872 -9.843415 0
M  V30 15 C 9.159540 7.870848 -12.156372 0
M  V30 16 O 10.219084 6.887978 -6.684031 0
M  V30 17 C 10.293726 8.132206 -8.799464 0
M  V30 18 F 13.228603 9.070998 -2.551637 0
M  V30 19 C 5.891343 6.453584 -14.217408 0
M  V30 20 C 10.178004 7.133448 -9.964434 0
M  V30 21 C 8.649554 6.490358 -11.849713 0 CFG=2
M  V30 22 C 6.856768 5.591573 -13.394225 0 CFG=1
M  V30 23 H 5.785543 3.206609 -11.482397 0
M  V30 24 H 11.047462 9.443190 -6.513023 0
M  V30 25 H 9.089483 8.613523 -7.028913 0
M  V30 26 H 8.576202 7.191690 -7.851190 0
M  V30 27 H 12.383430 10.390232 -4.665369 0
M  V30 28 H 11.096840 5.590889 -4.555079 0
M  V30 29 H 6.624499 7.149752 -11.884529 0
M  V30 30 H 6.975535 3.989914 -9.232826 0
M  V30 31 H 8.411744 4.307557 -10.202881 0
M  V30 32 H 7.712363 5.561316 -9.173989 0
M  V30 33 H 10.200187 7.990248 -12.429560 0
M  V30 34 H 8.473565 8.689529 -12.365982 0
M  V30 35 H 11.342423 8.234310 -8.519480 0
M  V30 36 H 9.986037 9.120020 -9.144338 0
M  V30 37 H 6.338009 7.418723 -14.457421 0
M  V30 38 H 5.624890 5.966764 -15.156119 0
M  V30 39 H 4.975437 6.641495 -13.660911 0
M  V30 40 H 10.134962 6.115619 -9.574790 0
M  V30 41 H 11.079002 7.190017 -10.576606 0
M  V30 42 H 9.343470 5.653205 -11.910344 0
M  V30 43 H 7.780028 5.478373 -13.965547 0
M  V30 44 H 8.099651 7.640746 -10.278842 0
M  V30 45 H 5.653435 5.617063 -10.565052 0
M  V30 END ATOM
M  V30 BEGIN BOND
M  V30 1 1 6 2
M  V30 2 2 6 3
M  V30 3 2 9 2
M  V30 4 1 9 5
M  V30 5 1 9 7
M  V30 6 2 10 1
M  V30 7 1 12 1
M  V30 8 1 12 8
M  V30 9 1 13 3
M  V30 10 2 13 7
M  V30 11 1 14 12
M  V30 12 1 15 11
M  V30 13 1 16 4
M  V30 14 1 16 13
M  V30 15 1 17 4
M  V30 16 1 18 2
M  V30 17 1 20 11
M  V30 18 1 20 17
M  V30 19 1 21 8
M  V30 20 1 21 11
M  V30 21 1 21 15
M  V30 22 1 22 8
M  V30 23 1 22 10
M  V30 24 1 22 19
M  V30 25 1 23 1
M  V30 26 1 24 3
M  V30 27 1 25 4
M  V30 28 1 26 4
M  V30 29 1 27 6
M  V30 30 1 28 7
M  V30 31 1 8 29 CFG=3
M  V30 32 1 30 14
M  V30 33 1 31 14
M  V30 34 1 32 14
M  V30 35 1 33 15
M  V30 36 1 34 15
M  V30 37 1 35 17
M  V30 38 1 36 17
M  V30 39 1 37 19
M  V30 40 1 38 19
M  V30 41 1 39 19
M  V30 42 1 40 20
M  V30 43 1 41 20
M  V30 44 1 21 42 CFG=1
M  V30 45 1 22 43 CFG=3
M  V30 46 1 11 44 CFG=1
M  V30 47 1 12 45 CFG=1
M  V30 END BOND
M  V30 END CTAB
M  END
>  <i_epik_Tot_Q>  (1) 
1

>  <i_epik_Tot_abs_Q>  (1) 
1

>  <i_i_glide_confnum>  (1) 
109

>  <i_i_glide_lignum>  (1) 
148

>  <i_i_glide_posenum>  (1) 
139

>  <i_i_glide_rotatable_bonds>  (1) 
6

>  <i_lp_mmshare_version>  (1) 
72125

>  <i_m_source_file_index>  (1) 
84

>  <i_f3d_flags>  (1) 
0

>  <num_sample>  (1) 
100

>  <b_lp_Chiralities_Consistent>  (1) 
1

>  <r_epik_Charging_Adjusted_Penalty>  (1) 
0.43105765877043739

>  <r_epik_Ionization_Penalty>  (1) 
0.36079924242796862

>  <r_epik_Ionization_Penalty_Charging>  (1) 
0.10499320228047652

>  <r_epik_Ionization_Penalty_Neutral>  (1) 
0.25580604014749209

>  <r_epik_State_Penalty>  (1) 
0.32606445648996085

>  <r_glide_ring_energy>  (1) 
0

>  <r_i_docking_score>  (1) 
-6.7795239812504713

>  <r_i_glide_ecoul>  (1) 
-7.7251748342540392

>  <r_i_glide_eff_state_penalty>  (1) 
0.32606445648996085

>  <r_i_glide_einternal>  (1) 
8.403611473955948

>  <r_i_glide_emodel>  (1) 
-58.789187496157304

>  <r_i_glide_emodel_strain>  (1) 
0.48667290626729454

>  <r_i_glide_energy>  (1) 
-39.93459842389251

>  <r_i_glide_erotb>  (1) 
0.96718860002963114

>  <r_i_glide_esite>  (1) 
-0.10000000000000001

>  <r_i_glide_evdw>  (1) 
-32.209423589638469

>  <r_i_glide_gscore>  (1) 
-7.1055884377404324

>  <r_i_glide_gscore_strain>  (1) 
0

>  <r_i_glide_hbond>  (1) 
-0.16679712718292289

>  <r_i_glide_ligand_efficiency>  (1) 
-0.30816018096593051

>  <r_i_glide_ligand_efficiency_ln>  (1) 
-1.6571629501632754

>  <r_i_glide_ligand_efficiency_sa>  (1) 
-0.86347694720841894

>  <r_i_glide_lipo>  (1) 
-2.0741257191217173

>  <r_i_glide_metal>  (1) 
-0

>  <r_i_glide_rewards>  (1) 
-2.9626067868453947

>  <r_lp_Energy>  (1) 
24.635403999999998

>  <r_lp_tautomer_probability>  (1) 
0.99998600000000004

>  <s_epik_Chemistry_Notes>  (1) 
This compound has an imine and may undergo hydrolysis.

>  <s_epik_cmdline>  (1) 
J2VwaWtfcHl0aG9uJywgJy1waHQnLCAnMS4wJywgJy1waCcsICc3LjQnLCAnLXRuJywgJzgnLCAnLW1hJywgJzUwMCcsICctaW1hZScsICc8aW5maWxlLm1hZT4nLCAnLW9tYWUnLCAnPG91dGZpbGUubWFlPic=

>  <s_epik_input>  (1) 
W0NIM11bQ0BASF0xTj1bQ0hdW0NAQEhdKFtDSDNdKVtDQEhdMVtDQEhdMltDSDJdTjJbQ0gyXVtDSDJdW0NIMl1PYyhbY0hdYzNGKVtjSF1bY0hdYzNG

>  <s_glide_docking_method>  (1) 
confgen

>  <s_i_glide_gridfile>  (1) 
gpcr_drd2_6luq_protein_autoprepared_prepared

>  <s_lp_Force_Field>  (1) 
S-OPLS

>  <s_lp_Variant>  (1) 
DiffSBDD_83-2

>  <s_m_source_file>  (1) 
generated_generic_title2_ligand_DiffSBDD_2026-06-23_prepared.sdf

>  <GenAI_Model>  (1) 
DiffSBDD

>  <Protein>  (1) 
generic_title2

$$$$
DiffSBDD_52
     RDKit          3D

  0  0  0  0  0  0  0  0  0  0999 V3000
M  V30 BEGIN CTAB
M  V30 COUNTS 50 53 0 0 1
M  V30 BEGIN ATOM
M  V30 1 C 12.521118 9.156375 -3.847893 0
M  V30 2 F 12.688767 7.111269 -2.494065 0
M  V30 3 C 9.164679 5.369120 -11.101291 0 CFG=1
M  V30 4 C 7.785995 7.391725 -12.782150 0
M  V30 5 C 9.140465 7.475973 -12.121082 0 CFG=2
M  V30 6 C 11.375405 6.980800 -4.385161 0
M  V30 7 C 12.345794 8.343121 -8.038528 0
M  V30 8 C 8.082184 5.361675 -14.393770 0
M  V30 9 C 12.175848 7.701933 -3.584580 0
M  V30 10 N 8.861241 6.790156 -10.855087 0 CFG=2 CHG=1
M  V30 11 C 11.155522 8.982049 -5.989178 0 CFG=2
M  V30 12 O 9.029794 4.811204 -9.927605 0 CHG=-1
M  V30 13 C 7.945883 3.851373 -14.242580 0
M  V30 14 O 12.322850 9.068904 -6.810228 0
M  V30 15 C 11.467801 9.823680 -4.743675 0
M  V30 16 C 7.491673 5.893362 -13.086569 0 CFG=1
M  V30 17 C 8.302593 3.577392 -12.776950 0
M  V30 18 C 11.200070 8.737347 -8.984077 0
M  V30 19 C 10.712586 7.535924 -5.631818 0
M  V30 20 C 9.650571 8.001981 -10.804197 0 CFG=1
M  V30 21 C 11.018032 7.789554 -10.173999 0
M  V30 22 C 7.975736 4.871002 -11.998725 0 CFG=1
M  V30 23 H 12.621179 9.690317 -2.902962 0
M  V30 24 H 13.491946 9.195035 -4.341699 0
M  V30 25 H 10.097605 5.265117 -11.658154 0
M  V30 26 H 7.018352 7.816738 -12.130061 0
M  V30 27 H 7.775086 7.986629 -13.695044 0
M  V30 28 H 9.944794 7.073705 -12.736167 0
M  V30 29 H 11.163048 5.949811 -4.142187 0
M  V30 30 H 13.300481 8.547775 -8.523849 0
M  V30 31 H 12.346921 7.271702 -7.843964 0
M  V30 32 H 7.565068 5.743509 -15.274127 0
M  V30 33 H 9.138863 5.612844 -14.482910 0
M  V30 34 H 10.332421 9.483791 -6.493761 0
M  V30 35 H 6.911541 3.559783 -14.428885 0
M  V30 36 H 8.575410 3.304947 -14.944319 0
M  V30 37 H 10.575284 9.987856 -4.152080 0
M  V30 38 H 11.780137 10.812340 -5.065369 0
M  V30 39 H 6.408282 5.791043 -13.178017 0
M  V30 40 H 7.755916 2.719157 -12.388621 0
M  V30 41 H 9.362670 3.336666 -12.695600 0
M  V30 42 H 10.257770 8.720627 -8.440189 0
M  V30 43 H 11.343956 9.759552 -9.334047 0
M  V30 44 H 10.821323 6.832329 -6.453463 0
M  V30 45 H 9.643593 7.550720 -5.433873 0
M  V30 46 H 9.045827 8.789090 -10.358444 0
M  V30 47 H 11.807759 7.929422 -10.910231 0
M  V30 48 H 11.093415 6.772999 -9.801117 0
M  V30 49 H 7.108290 4.687795 -11.360970 0
M  V30 50 H 7.938514 6.970948 -10.457953 0
M  V30 END ATOM
M  V30 BEGIN BOND
M  V30 1 1 5 4
M  V30 2 1 9 1
M  V30 3 1 9 2
M  V30 4 2 9 6
M  V30 5 1 10 3
M  V30 6 1 10 5
M  V30 7 1 12 3
M  V30 8 1 13 8
M  V30 9 1 14 7
M  V30 10 1 14 11
M  V30 11 1 15 1
M  V30 12 1 15 11
M  V30 13 1 16 4
M  V30 14 1 16 8
M  V30 15 1 17 13
M  V30 16 1 18 7
M  V30 17 1 19 6
M  V30 18 1 19 11
M  V30 19 1 20 5
M  V30 20 1 20 10
M  V30 21 1 21 18
M  V30 22 1 21 20
M  V30 23 1 22 3
M  V30 24 1 22 16
M  V30 25 1 22 17
M  V30 26 1 23 1
M  V30 27 1 24 1
M  V30 28 1 3 25 CFG=3
M  V30 29 1 26 4
M  V30 30 1 27 4
M  V30 31 1 5 28 CFG=3
M  V30 32 1 29 6
M  V30 33 1 30 7
M  V30 34 1 31 7
M  V30 35 1 32 8
M  V30 36 1 33 8
M  V30 37 1 11 34 CFG=3
M  V30 38 1 35 13
M  V30 39 1 36 13
M  V30 40 1 37 15
M  V30 41 1 38 15
M  V30 42 1 16 39 CFG=3
M  V30 43 1 40 17
M  V30 44 1 41 17
M  V30 45 1 42 18
M  V30 46 1 43 18
M  V30 47 1 44 19
M  V30 48 1 45 19
M  V30 49 1 20 46 CFG=1
M  V30 50 1 47 21
M  V30 51 1 48 21
M  V30 52 1 22 49 CFG=1
M  V30 53 1 10 50 CFG=1
M  V30 END BOND
M  V30 END CTAB
M  END
>  <i_epik_Tot_Q>  (1) 
0

>  <i_epik_Tot_abs_Q>  (1) 
2

>  <i_i_glide_confnum>  (1) 
20

>  <i_i_glide_lignum>  (1) 
83

>  <i_i_glide_posenum>  (1) 
165

>  <i_i_glide_rotatable_bonds>  (1) 
5

>  <i_lp_mmshare_version>  (1) 
72125

>  <i_m_source_file_index>  (1) 
53

>  <i_f3d_flags>  (1) 
0

>  <num_sample>  (1) 
100

>  <b_lp_Chiralities_Consistent>  (1) 
1

>  <r_epik_Charging_Adjusted_Penalty>  (1) 
0.66076975529779935

>  <r_epik_Ionization_Penalty>  (1) 
0.32551799850713803

>  <r_epik_Ionization_Penalty_Charging>  (1) 
0.32551799850601437

>  <r_epik_Ionization_Penalty_Neutral>  (1) 
1.1236391675704673e-12

>  <r_epik_State_Penalty>  (1) 
0.33525175679178498

>  <r_glide_ring_energy>  (1) 
0.73626691171998493

>  <r_i_docking_score>  (1) 
-6.7783323706905776

>  <r_i_glide_ecoul>  (1) 
-4.140740826874401

>  <r_i_glide_eff_state_penalty>  (1) 
0.33525175679178498

>  <r_i_glide_einternal>  (1) 
14.148279072691373

>  <r_i_glide_emodel>  (1) 
-39.322587624084889

>  <r_i_glide_emodel_strain>  (1) 
0.94179876206185043

>  <r_i_glide_energy>  (1) 
-33.071968474233856

>  <r_i_glide_erotb>  (1) 
0.58016400484968

>  <r_i_glide_esite>  (1) 
-0.098416096877611825

>  <r_i_glide_evdw>  (1) 
-28.931227647359453

>  <r_i_glide_gscore>  (1) 
-7.1135841274823628

>  <r_i_glide_gscore_strain>  (1) 
0

>  <r_i_glide_hbond>  (1) 
-0.20000000000000001

>  <r_i_glide_ligand_efficiency>  (1) 
-0.30810601684957173

>  <r_i_glide_ligand_efficiency_ln>  (1) 
-1.6568716770773861

>  <r_i_glide_ligand_efficiency_sa>  (1) 
-0.86332517722407143

>  <r_i_glide_lipo>  (1) 
-2.7182595883788974

>  <r_i_glide_metal>  (1) 
-0

>  <r_i_glide_rewards>  (1) 
-2.6093999406764006

>  <r_lp_Energy>  (1) 
38.746100999999996

>  <s_epik_Chemistry_Notes>  (1) 
This compound contains an acetal/aminal-like group ( X-CH(R)-Y where X, Y are N, S, or O) that may be acid/base labile, releasing an aldehyde.

>  <s_epik_cmdline>  (1) 
J2VwaWtfcHl0aG9uJywgJy1waHQnLCAnMS4wJywgJy1waCcsICc3LjQnLCAnLXRuJywgJzgnLCAnLW1hJywgJzUwMCcsICctaW1hZScsICc8aW5maWxlLm1hZT4nLCAnLW9tYWUnLCAnPG91dGZpbGUubWFlPic=

>  <s_epik_input>  (1) 
RkMxPVtDSF1bQ0gyXVtDQEBIXShbQ0gyXVtDSDJdMSlPW0NIMl1bQ0gyXVtDSDJdW0NAQEhdMk4oW0NASF0yMylbQ0BASF0oW09IXSlbQ0BIXTRbQ0BASF0oW0NIMl0zKVtDSDJdW0NIMl1bQ0gyXTQ=

>  <s_glide_docking_method>  (1) 
confgen

>  <s_i_glide_gridfile>  (1) 
gpcr_drd2_6luq_protein_autoprepared_prepared

>  <s_lp_Force_Field>  (1) 
S-OPLS

>  <s_lp_Variant>  (1) 
DiffSBDD_52-2

>  <s_m_source_file>  (1) 
generated_generic_title2_ligand_DiffSBDD_2026-06-23_prepared.sdf

>  <GenAI_Model>  (1) 
DiffSBDD

>  <Protein>  (1) 
generic_title2

$$$$
DiffSBDD_83
     RDKit          3D

  0  0  0  0  0  0  0  0  0  0999 V3000
M  V30 BEGIN CTAB
M  V30 COUNTS 45 47 0 0 1
M  V30 BEGIN ATOM
M  V30 1 C 7.951345 3.922428 -13.401426 0
M  V30 2 C 12.254173 8.910988 -3.985022 0
M  V30 3 C 11.361874 6.721582 -4.577517 0
M  V30 4 C 9.431809 6.949217 -7.763809 0
M  V30 5 F 11.775415 10.790194 -5.385495 0
M  V30 6 C 12.116450 7.538864 -3.712057 0
M  V30 7 C 10.891226 8.659043 -5.991239 0
M  V30 8 C 7.726948 5.884149 -12.214840 0 CFG=1
M  V30 9 C 11.642693 9.469974 -5.124378 0
M  V30 10 N 7.577913 4.692631 -14.321237 0
M  V30 11 N 8.975410 7.530012 -10.785025 0 CFG=2 CHG=1
M  V30 12 C 7.988983 4.385082 -11.987237 0 CFG=2
M  V30 13 C 10.742129 7.275152 -5.718643 0
M  V30 14 C 9.279524 3.990211 -11.253012 0
M  V30 15 C 8.774702 8.272860 -12.020623 0
M  V30 16 O 9.992964 6.456725 -6.547142 0
M  V30 17 C 10.493167 6.880140 -8.875225 0
M  V30 18 F 12.975467 9.692050 -3.155215 0
M  V30 19 C 5.701660 6.158911 -13.781957 0
M  V30 20 C 10.254760 7.794414 -10.089416 0
M  V30 21 C 8.944357 6.782830 -12.033418 0 CFG=2
M  V30 22 C 7.220795 5.949219 -13.688912 0 CFG=1
M  V30 23 H 8.265111 2.890575 -13.581433 0
M  V30 24 H 11.252254 5.668378 -4.364594 0
M  V30 25 H 8.975325 7.931871 -7.661688 0
M  V30 26 H 8.602621 6.291309 -8.027437 0
M  V30 27 H 12.586742 7.111980 -2.838710 0
M  V30 28 H 10.430132 9.101801 -6.856505 0
M  V30 29 H 6.943953 6.224567 -11.533951 0
M  V30 30 H 9.375404 2.906974 -11.199854 0
M  V30 31 H 10.175412 4.351647 -11.755468 0
M  V30 32 H 9.272407 4.365145 -10.231169 0
M  V30 33 H 9.623407 8.873966 -12.320026 0
M  V30 34 H 7.783855 8.724162 -12.027588 0
M  V30 35 H 10.575407 5.843173 -9.185015 0
M  V30 36 H 11.465174 7.143684 -8.457605 0
M  V30 37 H 5.405369 7.098753 -13.314504 0
M  V30 38 H 5.375339 6.190732 -14.821725 0
M  V30 39 H 5.156305 5.354572 -13.287287 0
M  V30 40 H 11.091978 7.705723 -10.783022 0
M  V30 41 H 10.244782 8.828504 -9.746358 0
M  V30 42 H 9.913561 6.424408 -12.373501 0
M  V30 43 H 7.706871 6.768123 -14.223131 0
M  V30 44 H 8.102759 7.590197 -10.226012 0
M  V30 45 H 7.131321 3.951323 -11.472388 0
M  V30 END ATOM
M  V30 BEGIN BOND
M  V30 1 1 6 2
M  V30 2 2 6 3
M  V30 3 2 9 2
M  V30 4 1 9 5
M  V30 5 1 9 7
M  V30 6 2 10 1
M  V30 7 1 12 1
M  V30 8 1 12 8
M  V30 9 1 13 3
M  V30 10 2 13 7
M  V30 11 1 14 12
M  V30 12 1 15 11
M  V30 13 1 16 4
M  V30 14 1 16 13
M  V30 15 1 17 4
M  V30 16 1 18 2
M  V30 17 1 20 11
M  V30 18 1 20 17
M  V30 19 1 21 8
M  V30 20 1 21 11
M  V30 21 1 21 15
M  V30 22 1 22 8
M  V30 23 1 22 10
M  V30 24 1 22 19
M  V30 25 1 23 1
M  V30 26 1 24 3
M  V30 27 1 25 4
M  V30 28 1 26 4
M  V30 29 1 27 6
M  V30 30 1 28 7
M  V30 31 1 8 29 CFG=1
M  V30 32 1 30 14
M  V30 33 1 31 14
M  V30 34 1 32 14
M  V30 35 1 33 15
M  V30 36 1 34 15
M  V30 37 1 35 17
M  V30 38 1 36 17
M  V30 39 1 37 19
M  V30 40 1 38 19
M  V30 41 1 39 19
M  V30 42 1 40 20
M  V30 43 1 41 20
M  V30 44 1 21 42 CFG=3
M  V30 45 1 22 43 CFG=3
M  V30 46 1 11 44 CFG=1
M  V30 47 1 12 45 CFG=1
M  V30 END BOND
M  V30 END CTAB
M  END
>  <i_epik_Tot_Q>  (1) 
1

>  <i_epik_Tot_abs_Q>  (1) 
1

>  <i_i_glide_confnum>  (1) 
55

>  <i_i_glide_lignum>  (1) 
148

>  <i_i_glide_posenum>  (1) 
77

>  <i_i_glide_rotatable_bonds>  (1) 
6

>  <i_lp_mmshare_version>  (1) 
72125

>  <i_m_source_file_index>  (1) 
84

>  <i_f3d_flags>  (1) 
0

>  <num_sample>  (1) 
100

>  <b_lp_Chiralities_Consistent>  (1) 
1

>  <r_epik_Charging_Adjusted_Penalty>  (1) 
0.43105765877043739

>  <r_epik_Ionization_Penalty>  (1) 
0.36079924242796862

>  <r_epik_Ionization_Penalty_Charging>  (1) 
0.10499320228047652

>  <r_epik_Ionization_Penalty_Neutral>  (1) 
0.25580604014749209

>  <r_epik_State_Penalty>  (1) 
0.32606445648996085

>  <r_glide_ring_energy>  (1) 
0

>  <r_i_docking_score>  (1) 
-6.7737302828790353

>  <r_i_glide_ecoul>  (1) 
-8.4699975672049117

>  <r_i_glide_eff_state_penalty>  (1) 
0.32606445648996085

>  <r_i_glide_einternal>  (1) 
7.7774165119589966

>  <r_i_glide_emodel>  (1) 
-58.731616992484277

>  <r_i_glide_emodel_strain>  (1) 
0

>  <r_i_glide_energy>  (1) 
-39.096453892871978

>  <r_i_glide_erotb>  (1) 
0.96718860002963114

>  <r_i_glide_esite>  (1) 
-0.10000000000000001

>  <r_i_glide_evdw>  (1) 
-30.626456325667068

>  <r_i_glide_gscore>  (1) 
-7.0997947393689964

>  <r_i_glide_gscore_strain>  (1) 
0

>  <r_i_glide_hbond>  (1) 
-0.15745793371578182

>  <r_i_glide_ligand_efficiency>  (1) 
-0.30789683103995613

>  <r_i_glide_ligand_efficiency_ln>  (1) 
-1.6557467589510138

>  <r_i_glide_ligand_efficiency_sa>  (1) 
-0.86273903035811361

>  <r_i_glide_lipo>  (1) 
-2.1907650093244491

>  <r_i_glide_metal>  (1) 
-0

>  <r_i_glide_rewards>  (1) 
-2.8169379449943075

>  <r_lp_Energy>  (1) 
24.635403999999998

>  <r_lp_tautomer_probability>  (1) 
0.99998600000000004

>  <s_epik_Chemistry_Notes>  (1) 
This compound has an imine and may undergo hydrolysis.

>  <s_epik_cmdline>  (1) 
J2VwaWtfcHl0aG9uJywgJy1waHQnLCAnMS4wJywgJy1waCcsICc3LjQnLCAnLXRuJywgJzgnLCAnLW1hJywgJzUwMCcsICctaW1hZScsICc8aW5maWxlLm1hZT4nLCAnLW9tYWUnLCAnPG91dGZpbGUubWFlPic=

>  <s_epik_input>  (1) 
W0NIM11bQ0BASF0xTj1bQ0hdW0NAQEhdKFtDSDNdKVtDQEhdMVtDQEhdMltDSDJdTjJbQ0gyXVtDSDJdW0NIMl1PYyhbY0hdYzNGKVtjSF1bY0hdYzNG

>  <s_glide_docking_method>  (1) 
confgen

>  <s_i_glide_gridfile>  (1) 
gpcr_drd2_6luq_protein_autoprepared_prepared

>  <s_lp_Force_Field>  (1) 
S-OPLS

>  <s_lp_Variant>  (1) 
DiffSBDD_83-2

>  <s_m_source_file>  (1) 
generated_generic_title2_ligand_DiffSBDD_2026-06-23_prepared.sdf

>  <GenAI_Model>  (1) 
DiffSBDD

>  <Protein>  (1) 
generic_title2

$$$$
DiffSBDD_52
     RDKit          3D

  0  0  0  0  0  0  0  0  0  0999 V3000
M  V30 BEGIN CTAB
M  V30 COUNTS 51 54 0 0 1
M  V30 BEGIN ATOM
M  V30 1 C 11.911245 9.361004 -3.819468 0
M  V30 2 F 12.674448 8.381150 -1.702409 0
M  V30 3 C 7.699195 6.325708 -12.178415 0 CFG=1
M  V30 4 C 6.503520 3.850124 -11.984607 0
M  V30 5 C 7.095643 4.390225 -10.690127 0 CFG=2
M  V30 6 C 11.936233 6.900574 -3.307898 0
M  V30 7 C 10.143076 6.223857 -7.218451 0
M  V30 8 C 6.783050 3.665519 -14.512819 0
M  V30 9 C 12.175416 8.164336 -2.929982 0
M  V30 10 N 7.645193 5.726387 -10.815044 0 CFG=1 CHG=1
M  V30 11 C 10.821668 7.712169 -5.487297 0 CFG=2
M  V30 12 O 8.655445 7.348417 -11.985029 0
M  V30 13 C 7.499974 4.549066 -15.521998 0
M  V30 14 O 10.785574 7.443219 -6.886211 0
M  V30 15 C 11.633617 9.003286 -5.293696 0
M  V30 16 C 7.469236 3.949040 -13.174729 0 CFG=1
M  V30 17 C 7.774457 5.820751 -14.727722 0
M  V30 18 C 9.717282 6.187222 -8.683627 0
M  V30 19 C 11.378862 6.518371 -4.664678 0
M  V30 20 C 8.568546 4.673742 -10.419353 0 CFG=1
M  V30 21 C 9.060684 4.831694 -8.993724 0
M  V30 22 C 8.121665 5.343735 -13.306537 0 CFG=1
M  V30 23 H 11.077661 9.925482 -3.400455 0
M  V30 24 H 12.795191 9.990226 -3.764573 0
M  V30 25 H 6.727331 6.771787 -12.394209 0
M  V30 26 H 5.593796 4.417007 -12.189903 0
M  V30 27 H 6.175449 2.819959 -11.838478 0
M  V30 28 H 6.432702 4.348116 -9.834425 0
M  V30 29 H 12.149096 6.089337 -2.626412 0
M  V30 30 H 9.266025 6.066274 -6.587138 0
M  V30 31 H 10.841701 5.408421 -7.041394 0
M  V30 32 H 5.747268 3.990221 -14.453706 0
M  V30 33 H 6.793507 2.609307 -14.783663 0
M  V30 34 H 9.794509 7.905057 -5.185026 0
M  V30 35 H 8.210381 8.115144 -11.649977 0
M  V30 36 H 6.908859 4.733896 -16.419605 0
M  V30 37 H 8.439551 4.085070 -15.825917 0
M  V30 38 H 12.575410 8.899284 -5.821819 0
M  V30 39 H 11.126527 9.836682 -5.781344 0
M  V30 40 H 8.267234 3.216687 -13.037780 0
M  V30 41 H 6.881392 6.447243 -14.722332 0
M  V30 42 H 8.575409 6.390226 -15.185018 0
M  V30 43 H 10.575428 6.359779 -9.332604 0
M  V30 44 H 9.018393 7.004355 -8.863062 0
M  V30 45 H 10.590109 5.784077 -4.506397 0
M  V30 46 H 12.175266 6.014556 -5.211219 0
M  V30 47 H 9.329647 4.488366 -11.171770 0
M  V30 48 H 8.224733 4.671728 -8.310067 0
M  V30 49 H 9.775411 4.031258 -8.794898 0
M  V30 50 H 9.203671 5.201412 -13.272046 0
M  V30 51 H 7.375382 6.358655 -10.059884 0
M  V30 END ATOM
M  V30 BEGIN BOND
M  V30 1 1 5 4
M  V30 2 1 9 1
M  V30 3 1 9 2
M  V30 4 2 9 6
M  V30 5 1 10 3
M  V30 6 1 10 5
M  V30 7 1 12 3
M  V30 8 1 13 8
M  V30 9 1 14 7
M  V30 10 1 14 11
M  V30 11 1 15 1
M  V30 12 1 15 11
M  V30 13 1 16 4
M  V30 14 1 16 8
M  V30 15 1 17 13
M  V30 16 1 18 7
M  V30 17 1 19 6
M  V30 18 1 19 11
M  V30 19 1 20 5
M  V30 20 1 20 10
M  V30 21 1 21 18
M  V30 22 1 21 20
M  V30 23 1 22 3
M  V30 24 1 22 16
M  V30 25 1 22 17
M  V30 26 1 23 1
M  V30 27 1 24 1
M  V30 28 1 3 25 CFG=3
M  V30 29 1 26 4
M  V30 30 1 27 4
M  V30 31 1 5 28 CFG=1
M  V30 32 1 29 6
M  V30 33 1 30 7
M  V30 34 1 31 7
M  V30 35 1 32 8
M  V30 36 1 33 8
M  V30 37 1 11 34 CFG=1
M  V30 38 1 35 12
M  V30 39 1 36 13
M  V30 40 1 37 13
M  V30 41 1 38 15
M  V30 42 1 39 15
M  V30 43 1 16 40 CFG=1
M  V30 44 1 41 17
M  V30 45 1 42 17
M  V30 46 1 43 18
M  V30 47 1 44 18
M  V30 48 1 45 19
M  V30 49 1 46 19
M  V30 50 1 20 47 CFG=3
M  V30 51 1 48 21
M  V30 52 1 49 21
M  V30 53 1 22 50 CFG=3
M  V30 54 1 10 51 CFG=1
M  V30 END BOND
M  V30 END CTAB
M  END
>  <i_epik_Tot_Q>  (1) 
1

>  <i_epik_Tot_abs_Q>  (1) 
1

>  <i_i_glide_confnum>  (1) 
121

>  <i_i_glide_lignum>  (1) 
84

>  <i_i_glide_posenum>  (1) 
353

>  <i_i_glide_rotatable_bonds>  (1) 
6

>  <i_lp_mmshare_version>  (1) 
72125

>  <i_m_source_file_index>  (1) 
53

>  <i_f3d_flags>  (1) 
0

>  <num_sample>  (1) 
100

>  <b_lp_Chiralities_Consistent>  (1) 
1

>  <r_epik_Charging_Adjusted_Penalty>  (1) 
0.54296395038273226

>  <r_epik_Ionization_Penalty>  (1) 
0.53316988730295212

>  <r_epik_Ionization_Penalty_Charging>  (1) 
0.022916544562111445

>  <r_epik_Ionization_Penalty_Neutral>  (1) 
0.51025334274084067

>  <r_epik_State_Penalty>  (1) 
0.52004740582062081

>  <r_glide_ring_energy>  (1) 
0

>  <r_i_docking_score>  (1) 
-6.7593585816586659

>  <r_i_glide_ecoul>  (1) 
-7.5333651682229776

>  <r_i_glide_eff_state_penalty>  (1) 
0.52004740582062081

>  <r_i_glide_einternal>  (1) 
6.2688173813826937

>  <r_i_glide_emodel>  (1) 
-52.256570077087801

>  <r_i_glide_emodel_strain>  (1) 
1.9474731724281753

>  <r_i_glide_energy>  (1) 
-36.857068016981245

>  <r_i_glide_erotb>  (1) 
0.76914675799504084

>  <r_i_glide_esite>  (1) 
-0.15573621487262246

>  <r_i_glide_evdw>  (1) 
-29.32370284875827

>  <r_i_glide_gscore>  (1) 
-7.2794059874792865

>  <r_i_glide_gscore_strain>  (1) 
0

>  <r_i_glide_hbond>  (1) 
-0.20000000000000001

>  <r_i_glide_ligand_efficiency>  (1) 
-0.30724357189357571

>  <r_i_glide_ligand_efficiency_ln>  (1) 
-1.6522337909522162

>  <r_i_glide_ligand_efficiency_sa>  (1) 
-0.86090857253684527

>  <r_i_glide_lipo>  (1) 
-2.6049591823618186

>  <r_i_glide_metal>  (1) 
-0

>  <r_i_glide_rewards>  (1) 
-2.4916674305685262

>  <r_lp_Energy>  (1) 
22.961214999999999

>  <s_epik_Chemistry_Notes>  (1) 
This compound contains an acetal/aminal-like group ( X-CH(R)-Y where X, Y are N, S, or O) that may be acid/base labile, releasing an aldehyde.

>  <s_epik_cmdline>  (1) 
J2VwaWtfcHl0aG9uJywgJy1waHQnLCAnMS4wJywgJy1waCcsICc3LjQnLCAnLXRuJywgJzgnLCAnLW1hJywgJzUwMCcsICctaW1hZScsICc8aW5maWxlLm1hZT4nLCAnLW9tYWUnLCAnPG91dGZpbGUubWFlPic=

>  <s_epik_input>  (1) 
RkMxPVtDSF1bQ0gyXVtDQEBIXShbQ0gyXVtDSDJdMSlPW0NIMl1bQ0gyXVtDSDJdW0NAQEhdMk4oW0NASF0yMylbQ0BASF0oW09IXSlbQ0BIXTRbQ0BASF0oW0NIMl0zKVtDSDJdW0NIMl1bQ0gyXTQ=

>  <s_glide_docking_method>  (1) 
confgen

>  <s_i_glide_gridfile>  (1) 
gpcr_drd2_6luq_protein_autoprepared_prepared

>  <s_lp_Force_Field>  (1) 
S-OPLS

>  <s_lp_Variant>  (1) 
DiffSBDD_52-3

>  <s_m_source_file>  (1) 
generated_generic_title2_ligand_DiffSBDD_2026-06-23_prepared.sdf

>  <GenAI_Model>  (1) 
DiffSBDD

>  <Protein>  (1) 
generic_title2

$$$$
DiffSBDD_52
     RDKit          3D

  0  0  0  0  0  0  0  0  0  0999 V3000
M  V30 BEGIN CTAB
M  V30 COUNTS 51 54 0 0 1
M  V30 BEGIN ATOM
M  V30 1 C 12.243799 9.414491 -3.361853 0
M  V30 2 F 12.975411 8.245929 -1.339871 0
M  V30 3 C 9.238339 5.383424 -12.720344 0 CFG=1
M  V30 4 C 7.727532 7.703628 -12.352161 0
M  V30 5 C 8.602572 7.270533 -11.185027 0 CFG=2
M  V30 6 C 12.123377 6.929984 -3.028917 0
M  V30 7 C 10.286127 6.683824 -7.003939 0
M  V30 8 C 6.364740 6.926192 -14.385864 0
M  V30 9 C 12.443894 8.146728 -2.567668 0
M  V30 10 N 9.411872 6.089213 -11.427533 0 CFG=1 CHG=1
M  V30 11 C 11.179065 7.964170 -5.194457 0 CFG=2
M  V30 12 O 9.775412 4.126236 -12.385027 0
M  V30 13 C 6.358182 5.609569 -15.154233 0
M  V30 14 O 11.160332 7.732829 -6.598357 0
M  V30 15 C 12.049611 9.199834 -4.872533 0
M  V30 16 C 6.947911 6.557701 -13.014945 0 CFG=1
M  V30 17 C 7.657807 4.937484 -14.716483 0
M  V30 18 C 9.883682 6.899728 -8.461375 0
M  V30 19 C 11.516192 6.678419 -4.395667 0
M  V30 20 C 8.403671 5.990230 -10.380398 0 CFG=1
M  V30 21 C 9.004842 5.754443 -9.000741 0
M  V30 22 C 7.778064 5.269824 -13.221514 0 CFG=1
M  V30 23 H 11.402792 9.964137 -2.937379 0
M  V30 24 H 13.145635 9.990248 -3.195612 0
M  V30 25 H 9.876624 5.869507 -13.458501 0
M  V30 26 H 8.364108 8.198914 -13.082635 0
M  V30 27 H 7.030760 8.458018 -11.985027 0
M  V30 28 H 9.234758 8.056406 -10.780034 0
M  V30 29 H 12.296032 6.061200 -2.409421 0
M  V30 30 H 9.384755 6.659379 -6.388731 0
M  V30 31 H 10.786800 5.722056 -6.888615 0
M  V30 32 H 7.010163 7.638891 -14.901574 0
M  V30 33 H 5.375385 7.377942 -14.311532 0
M  V30 34 H 10.175410 8.255791 -4.925026 0
M  V30 35 H 10.514738 3.953512 -12.959565 0
M  V30 36 H 6.292500 5.745776 -16.234115 0
M  V30 37 H 5.506346 5.010979 -14.831610 0
M  V30 38 H 13.021824 9.190225 -5.363808 0
M  V30 39 H 11.564930 10.083445 -5.289727 0
M  V30 40 H 6.113509 6.304087 -12.358337 0
M  V30 41 H 8.489065 5.368838 -15.276191 0
M  V30 42 H 7.658539 3.864072 -14.905652 0
M  V30 43 H 10.780550 7.007436 -9.071194 0
M  V30 44 H 9.341281 7.844369 -8.517853 0
M  V30 45 H 10.608135 6.092041 -4.248904 0
M  V30 46 H 12.175419 6.035836 -4.969966 0
M  V30 47 H 7.590781 5.318796 -10.640071 0
M  V30 48 H 8.169523 5.606536 -8.314540 0
M  V30 49 H 9.561631 4.816353 -9.008580 0
M  V30 50 H 7.273520 4.471420 -12.672885 0
M  V30 51 H 10.350757 6.169066 -11.071172 0
M  V30 END ATOM
M  V30 BEGIN BOND
M  V30 1 1 5 4
M  V30 2 1 9 1
M  V30 3 1 9 2
M  V30 4 2 9 6
M  V30 5 1 10 3
M  V30 6 1 10 5
M  V30 7 1 12 3
M  V30 8 1 13 8
M  V30 9 1 14 7
M  V30 10 1 14 11
M  V30 11 1 15 1
M  V30 12 1 15 11
M  V30 13 1 16 4
M  V30 14 1 16 8
M  V30 15 1 17 13
M  V30 16 1 18 7
M  V30 17 1 19 6
M  V30 18 1 19 11
M  V30 19 1 20 5
M  V30 20 1 20 10
M  V30 21 1 21 18
M  V30 22 1 21 20
M  V30 23 1 22 3
M  V30 24 1 22 16
M  V30 25 1 22 17
M  V30 26 1 23 1
M  V30 27 1 24 1
M  V30 28 1 3 25 CFG=3
M  V30 29 1 26 4
M  V30 30 1 27 4
M  V30 31 1 5 28 CFG=1
M  V30 32 1 29 6
M  V30 33 1 30 7
M  V30 34 1 31 7
M  V30 35 1 32 8
M  V30 36 1 33 8
M  V30 37 1 11 34 CFG=1
M  V30 38 1 35 12
M  V30 39 1 36 13
M  V30 40 1 37 13
M  V30 41 1 38 15
M  V30 42 1 39 15
M  V30 43 1 16 40 CFG=1
M  V30 44 1 41 17
M  V30 45 1 42 17
M  V30 46 1 43 18
M  V30 47 1 44 18
M  V30 48 1 45 19
M  V30 49 1 46 19
M  V30 50 1 20 47 CFG=3
M  V30 51 1 48 21
M  V30 52 1 49 21
M  V30 53 1 22 50 CFG=1
M  V30 54 1 10 51 CFG=1
M  V30 END BOND
M  V30 END CTAB
M  END
>  <i_epik_Tot_Q>  (1) 
1

>  <i_epik_Tot_abs_Q>  (1) 
1

>  <i_i_glide_confnum>  (1) 
102

>  <i_i_glide_lignum>  (1) 
84

>  <i_i_glide_posenum>  (1) 
139

>  <i_i_glide_rotatable_bonds>  (1) 
6

>  <i_lp_mmshare_version>  (1) 
72125

>  <i_m_source_file_index>  (1) 
53

>  <i_f3d_flags>  (1) 
0

>  <num_sample>  (1) 
100

>  <b_lp_Chiralities_Consistent>  (1) 
1

>  <r_epik_Charging_Adjusted_Penalty>  (1) 
0.54296395038273226

>  <r_epik_Ionization_Penalty>  (1) 
0.53316988730295212

>  <r_epik_Ionization_Penalty_Charging>  (1) 
0.022916544562111445

>  <r_epik_Ionization_Penalty_Neutral>  (1) 
0.51025334274084067

>  <r_epik_State_Penalty>  (1) 
0.52004740582062081

>  <r_glide_ring_energy>  (1) 
0

>  <r_i_docking_score>  (1) 
-6.749590112515774

>  <r_i_glide_ecoul>  (1) 
-6.0100406030170461

>  <r_i_glide_eff_state_penalty>  (1) 
0.52004740582062081

>  <r_i_glide_einternal>  (1) 
6.9319510170736178

>  <r_i_glide_emodel>  (1) 
-53.368631469737693

>  <r_i_glide_emodel_strain>  (1) 
0.66483915879911137

>  <r_i_glide_energy>  (1) 
-37.045546842016627

>  <r_i_glide_erotb>  (1) 
0.76914675799504084

>  <r_i_glide_esite>  (1) 
-0.011176955040543238

>  <r_i_glide_evdw>  (1) 
-31.035506238999581

>  <r_i_glide_gscore>  (1) 
-7.2696375183363946

>  <r_i_glide_gscore_strain>  (1) 
0

>  <r_i_glide_hbond>  (1) 
-0.32000000000000001

>  <r_i_glide_ligand_efficiency>  (1) 
-0.30679955056889879

>  <r_i_glide_ligand_efficiency_ln>  (1) 
-1.649846020780124

>  <r_i_glide_ligand_efficiency_sa>  (1) 
-0.85966440732145089

>  <r_i_glide_lipo>  (1) 
-2.5614644104993807

>  <r_i_glide_metal>  (1) 
-0

>  <r_i_glide_rewards>  (1) 
-2.6928615083889742

>  <r_lp_Energy>  (1) 
22.961214999999999

>  <s_epik_Chemistry_Notes>  (1) 
This compound contains an acetal/aminal-like group ( X-CH(R)-Y where X, Y are N, S, or O) that may be acid/base labile, releasing an aldehyde.

>  <s_epik_cmdline>  (1) 
J2VwaWtfcHl0aG9uJywgJy1waHQnLCAnMS4wJywgJy1waCcsICc3LjQnLCAnLXRuJywgJzgnLCAnLW1hJywgJzUwMCcsICctaW1hZScsICc8aW5maWxlLm1hZT4nLCAnLW9tYWUnLCAnPG91dGZpbGUubWFlPic=

>  <s_epik_input>  (1) 
RkMxPVtDSF1bQ0gyXVtDQEBIXShbQ0gyXVtDSDJdMSlPW0NIMl1bQ0gyXVtDSDJdW0NAQEhdMk4oW0NASF0yMylbQ0BASF0oW09IXSlbQ0BIXTRbQ0BASF0oW0NIMl0zKVtDSDJdW0NIMl1bQ0gyXTQ=

>  <s_glide_docking_method>  (1) 
confgen

>  <s_i_glide_gridfile>  (1) 
gpcr_drd2_6luq_protein_autoprepared_prepared

>  <s_lp_Force_Field>  (1) 
S-OPLS

>  <s_lp_Variant>  (1) 
DiffSBDD_52-3

>  <s_m_source_file>  (1) 
generated_generic_title2_ligand_DiffSBDD_2026-06-23_prepared.sdf

>  <GenAI_Model>  (1) 
DiffSBDD

>  <Protein>  (1) 
generic_title2

$$$$
DiffSBDD_10
     RDKit          3D

  0  0  0  0  0  0  0  0  0  0999 V3000
M  V30 BEGIN CTAB
M  V30 COUNTS 56 60 0 0 1
M  V30 BEGIN ATOM
M  V30 1 S 9.504790 7.358954 -11.612295 0
M  V30 2 C 11.312904 8.206516 -9.674159 0
M  V30 3 C 7.246248 5.888624 -12.216461 0 CFG=1
M  V30 4 C 10.545004 7.421720 -6.462441 0
M  V30 5 C 6.037549 6.730540 -14.428202 0
M  V30 6 C 11.273002 7.628002 -5.123975 0
M  V30 7 O 8.975409 8.553952 -12.278969 0
M  V30 8 C 6.835284 5.619005 -15.149992 0
M  V30 9 C 12.501153 9.045649 -3.540702 0
M  V30 10 C 7.663705 3.154688 -14.720307 0
M  V30 11 C 7.980497 2.472370 -13.376704 0
M  V30 12 N 8.168459 6.374718 -11.185025 0
M  V30 13 C 5.776235 5.996543 -11.899872 0
M  V30 14 C 6.967936 4.402542 -14.230928 0 CFG=1
M  V30 15 O 10.532513 6.516167 -12.240692 0
M  V30 16 C 11.853265 8.878767 -4.780633 0
M  V30 17 N 10.016399 7.816095 -10.034418 0
M  V30 18 C 6.387711 6.912288 -12.946553 0 CFG=1
M  V30 19 C 11.375315 6.558766 -4.194248 0
M  V30 20 C 10.710752 6.071168 -7.148252 0
M  V30 21 C 12.575772 7.983405 -2.630047 0
M  V30 22 O 12.287638 7.990220 -10.385172 0
M  V30 23 O 7.960181 3.503836 -12.385041 0
M  V30 24 C 10.329060 8.691029 -7.293950 0
M  V30 25 C 12.017868 6.742331 -2.955671 0
M  V30 26 C 11.445639 8.939901 -8.335869 0
M  V30 27 C 9.395800 6.431223 -6.513082 0
M  V30 28 C 7.841999 4.754203 -13.036820 0 CFG=2
M  V30 29 H 4.975426 6.501493 -14.492777 0
M  V30 30 H 6.180012 7.679422 -14.946065 0
M  V30 31 H 6.339672 5.347290 -16.082029 0
M  V30 32 H 7.825154 5.989996 -15.419949 0
M  V30 33 H 12.941494 9.990441 -3.288334 0
M  V30 34 H 7.040664 2.541903 -15.372244 0
M  V30 35 H 8.575410 3.413873 -15.257859 0
M  V30 36 H 7.212698 1.740791 -13.122697 0
M  V30 37 H 8.938952 1.954231 -13.380203 0
M  V30 38 H 7.627693 6.858680 -10.446056 0
M  V30 39 H 5.120804 5.193666 -12.225358 0
M  V30 40 H 5.495029 6.445612 -10.949028 0
M  V30 41 H 5.972647 4.097358 -13.906985 0
M  V30 42 H 11.808820 9.709144 -5.464270 0
M  V30 43 H 9.217332 7.990396 -9.422293 0
M  V30 44 H 6.477543 7.949225 -12.632275 0
M  V30 45 H 10.948511 5.596249 -4.429269 0
M  V30 46 H 10.682420 5.984357 -8.228987 0
M  V30 47 H 11.375470 5.358020 -6.669432 0
M  V30 48 H 13.069056 8.121460 -1.679356 0
M  V30 49 H 9.358654 8.631065 -7.784955 0
M  V30 50 H 10.175394 9.554255 -6.652543 0
M  V30 51 H 12.080226 5.922585 -2.254759 0
M  V30 52 H 11.502569 9.990144 -8.606865 0
M  V30 53 H 12.416524 8.702722 -7.899511 0
M  V30 54 H 9.092344 5.990308 -5.572997 0
M  V30 55 H 8.575462 6.610268 -7.204951 0
M  V30 56 H 8.828498 5.050691 -13.395121 0
M  V30 END ATOM
M  V30 BEGIN BOND
M  V30 1 1 6 4
M  V30 2 2 7 1
M  V30 3 1 8 5
M  V30 4 1 11 10
M  V30 5 1 12 1
M  V30 6 1 3 12 CFG=1
M  V30 7 1 13 3
M  V30 8 1 14 8
M  V30 9 1 14 10
M  V30 10 2 15 1
M  V30 11 2 16 6
M  V30 12 1 16 9
M  V30 13 1 17 1
M  V30 14 1 17 2
M  V30 15 1 18 3
M  V30 16 1 18 5
M  V30 17 1 18 13
M  V30 18 1 19 6
M  V30 19 1 20 4
M  V30 20 2 21 9
M  V30 21 2 22 2
M  V30 22 1 23 11
M  V30 23 1 24 4
M  V30 24 2 25 19
M  V30 25 1 25 21
M  V30 26 1 26 2
M  V30 27 1 26 24
M  V30 28 1 27 4
M  V30 29 1 27 20
M  V30 30 1 28 3
M  V30 31 1 28 14
M  V30 32 1 28 23
M  V30 33 1 29 5
M  V30 34 1 30 5
M  V30 35 1 31 8
M  V30 36 1 32 8
M  V30 37 1 33 9
M  V30 38 1 34 10
M  V30 39 1 35 10
M  V30 40 1 36 11
M  V30 41 1 37 11
M  V30 42 1 38 12
M  V30 43 1 39 13
M  V30 44 1 40 13
M  V30 45 1 14 41 CFG=1
M  V30 46 1 42 16
M  V30 47 1 43 17
M  V30 48 1 18 44 CFG=1
M  V30 49 1 45 19
M  V30 50 1 46 20
M  V30 51 1 47 20
M  V30 52 1 48 21
M  V30 53 1 49 24
M  V30 54 1 50 24
M  V30 55 1 51 25
M  V30 56 1 52 26
M  V30 57 1 53 26
M  V30 58 1 54 27
M  V30 59 1 55 27
M  V30 60 1 28 56 CFG=3
M  V30 END BOND
M  V30 END CTAB
M  END
>  <i_epik_Tot_Q>  (1) 
0

>  <i_epik_Tot_abs_Q>  (1) 
0

>  <i_i_glide_confnum>  (1) 
170

>  <i_i_glide_lignum>  (1) 
20

>  <i_i_glide_posenum>  (1) 
375

>  <i_i_glide_rotatable_bonds>  (1) 
8

>  <i_lp_mmshare_version>  (1) 
72125

>  <i_m_source_file_index>  (1) 
11

>  <i_f3d_flags>  (1) 
0

>  <num_sample>  (1) 
100

>  <b_lp_Chiralities_Consistent>  (1) 
1

>  <r_epik_Charging_Adjusted_Penalty>  (1) 
1.0976853204972508

>  <r_epik_Ionization_Penalty>  (1) 
2.0664492353545092

>  <r_epik_Ionization_Penalty_Charging>  (1) 
0

>  <r_epik_Ionization_Penalty_Neutral>  (1) 
2.0664492353545092

>  <r_epik_State_Penalty>  (1) 
1.0976853204972508

>  <r_glide_ring_energy>  (1) 
0

>  <r_i_docking_score>  (1) 
-6.7294047340381073

>  <r_i_glide_ecoul>  (1) 
-8.2619976291248207

>  <r_i_glide_eff_state_penalty>  (1) 
1.0976853204972508

>  <r_i_glide_einternal>  (1) 
13.210207198665865

>  <r_i_glide_emodel>  (1) 
-59.553774538698448

>  <r_i_glide_emodel_strain>  (1) 
0.71361829899805684

>  <r_i_glide_energy>  (1) 
-46.426594652621489

>  <r_i_glide_erotb>  (1) 
0.84027593632591602

>  <r_i_glide_esite>  (1) 
-0.27040153396518657

>  <r_i_glide_evdw>  (1) 
-38.164597023496668

>  <r_i_glide_gscore>  (1) 
-7.8270900545353577

>  <r_i_glide_gscore_strain>  (1) 
0

>  <r_i_glide_hbond>  (1) 
-0.16

>  <r_i_glide_ligand_efficiency>  (1) 
-0.24033588335850384

>  <r_i_glide_ligand_efficiency_ln>  (1) 
-1.5533441965245438

>  <r_i_glide_ligand_efficiency_sa>  (1) 
-0.72980129295242846

>  <r_i_glide_lipo>  (1) 
-3.2807835215428907

>  <r_i_glide_metal>  (1) 
-0

>  <r_i_glide_rewards>  (1) 
-1.8086514398096389

>  <r_lp_Energy>  (1) 
1.11948

>  <s_epik_cmdline>  (1) 
J2VwaWtfcHl0aG9uJywgJy1waHQnLCAnMS4wJywgJy1waCcsICc3LjQnLCAnLXRuJywgJzgnLCAnLW1hJywgJzUwMCcsICctaW1hZScsICc8aW5maWxlLm1hZT4nLCAnLW9tYWUnLCAnPG91dGZpbGUubWFlPic=

>  <s_epik_input>  (1) 
W0NIMl0xW0NIMl1PW0NASF0yW0NASF0xW0NIMl1bQ0gyXVtDQEBIXShbQ0gyXTMpW0NAXTIzW05IXVMoPU8pKD1PKVtOSF1DKD1PKVtDSDJdW0NIMl1DNChbQ0gyXVtDSDJdNCljNVtjSF1bY0hdW2NIXVtjSF1bY0hdNQ==

>  <s_glide_docking_method>  (1) 
confgen

>  <s_i_glide_gridfile>  (1) 
gpcr_drd2_6luq_protein_autoprepared_prepared

>  <s_lp_Force_Field>  (1) 
S-OPLS

>  <s_lp_Variant>  (1) 
DiffSBDD_10-3

>  <s_m_source_file>  (1) 
generated_generic_title2_ligand_DiffSBDD_2026-06-23_prepared.sdf

>  <GenAI_Model>  (1) 
DiffSBDD

>  <Protein>  (1) 
generic_title2

$$$$
DiffSBDD_83
     RDKit          3D

  0  0  0  0  0  0  0  0  0  0999 V3000
M  V30 BEGIN CTAB
M  V30 COUNTS 46 48 0 0 1
M  V30 BEGIN ATOM
M  V30 1 C 7.297711 3.610990 -12.809071 0
M  V30 2 C 11.775854 7.189836 -3.361811 0
M  V30 3 C 10.982806 7.295417 -5.666204 0
M  V30 4 C 11.539208 8.587711 -8.174666 0
M  V30 5 F 12.872599 9.088285 -2.408960 0
M  V30 6 C 11.133650 6.588655 -4.460296 0
M  V30 7 C 12.112807 9.217150 -4.672738 0
M  V30 8 C 7.663803 5.807667 -12.173227 0 CFG=1
M  V30 9 C 12.260662 8.506436 -3.466313 0
M  V30 10 N 6.943117 4.338774 -13.777162 0 CHG=1
M  V30 11 N 8.975414 7.423608 -10.785019 0 CFG=2 CHG=1
M  V30 12 C 7.872925 4.316008 -11.651610 0 CFG=2
M  V30 13 C 11.483618 8.613144 -5.778500 0
M  V30 14 C 9.325501 3.855700 -11.441388 0
M  V30 15 C 8.809789 8.200809 -12.005872 0
M  V30 16 O 11.375690 9.309705 -6.957275 0
M  V30 17 C 10.185616 8.400132 -8.870535 0
M  V30 18 F 11.920058 6.504283 -2.202693 0
M  V30 19 C 5.817332 6.524055 -13.897970 0
M  V30 20 C 10.276237 7.477626 -10.088564 0
M  V30 21 C 8.896715 6.697844 -12.041978 0 CFG=2
M  V30 22 C 7.122541 5.756986 -13.661410 0 CFG=1
M  V30 23 H 7.171019 2.534410 -12.865387 0
M  V30 24 H 10.491525 6.824876 -6.503572 0
M  V30 25 H 12.049453 7.633531 -8.030087 0
M  V30 26 H 12.196177 9.172555 -8.819366 0
M  V30 27 H 10.753691 5.589222 -4.376811 0
M  V30 28 H 12.491642 10.222453 -4.755089 0
M  V30 29 H 6.873105 6.244901 -11.558419 0
M  V30 30 H 9.375416 2.791730 -11.216100 0
M  V30 31 H 9.948028 4.024396 -12.321417 0
M  V30 32 H 9.774633 4.374774 -10.596259 0
M  V30 33 H 9.686472 8.790176 -12.252182 0
M  V30 34 H 7.842031 8.699104 -11.992623 0
M  V30 35 H 9.807354 9.370750 -9.185064 0
M  V30 36 H 9.450938 8.004253 -8.168026 0
M  V30 37 H 5.962770 7.589911 -13.738415 0
M  V30 38 H 5.457036 6.387461 -14.917870 0
M  V30 39 H 5.032309 6.191318 -13.218427 0
M  V30 40 H 10.527827 6.473817 -9.746379 0
M  V30 41 H 11.076509 7.794231 -10.759995 0
M  V30 42 H 9.852491 6.296595 -12.373176 0
M  V30 43 H 7.888328 6.035339 -14.387266 0
M  V30 44 H 8.113564 7.489215 -10.212484 0
M  V30 45 H 7.268801 4.124202 -10.763148 0
M  V30 46 H 6.538862 3.944739 -14.623385 0
M  V30 END ATOM
M  V30 BEGIN BOND
M  V30 1 1 6 2
M  V30 2 2 6 3
M  V30 3 2 9 2
M  V30 4 1 9 5
M  V30 5 1 9 7
M  V30 6 2 10 1
M  V30 7 1 12 1
M  V30 8 1 12 8
M  V30 9 1 13 3
M  V30 10 2 13 7
M  V30 11 1 14 12
M  V30 12 1 15 11
M  V30 13 1 16 4
M  V30 14 1 16 13
M  V30 15 1 17 4
M  V30 16 1 18 2
M  V30 17 1 20 11
M  V30 18 1 20 17
M  V30 19 1 21 8
M  V30 20 1 21 11
M  V30 21 1 21 15
M  V30 22 1 22 8
M  V30 23 1 22 10
M  V30 24 1 22 19
M  V30 25 1 23 1
M  V30 26 1 24 3
M  V30 27 1 25 4
M  V30 28 1 26 4
M  V30 29 1 27 6
M  V30 30 1 28 7
M  V30 31 1 8 29 CFG=1
M  V30 32 1 30 14
M  V30 33 1 31 14
M  V30 34 1 32 14
M  V30 35 1 33 15
M  V30 36 1 34 15
M  V30 37 1 35 17
M  V30 38 1 36 17
M  V30 39 1 37 19
M  V30 40 1 38 19
M  V30 41 1 39 19
M  V30 42 1 40 20
M  V30 43 1 41 20
M  V30 44 1 21 42 CFG=3
M  V30 45 1 22 43 CFG=3
M  V30 46 1 11 44 CFG=1
M  V30 47 1 12 45 CFG=1
M  V30 48 1 46 10
M  V30 END BOND
M  V30 END CTAB
M  END
>  <i_epik_Tot_Q>  (1) 
2

>  <i_epik_Tot_abs_Q>  (1) 
2

>  <i_i_glide_confnum>  (1) 
24

>  <i_i_glide_lignum>  (1) 
150

>  <i_i_glide_posenum>  (1) 
51

>  <i_i_glide_rotatable_bonds>  (1) 
6

>  <i_lp_mmshare_version>  (1) 
72125

>  <i_m_source_file_index>  (1) 
84

>  <i_f3d_flags>  (1) 
0

>  <num_sample>  (1) 
100

>  <b_lp_Chiralities_Consistent>  (1) 
1

>  <r_epik_Charging_Adjusted_Penalty>  (1) 
1.5610925274032894

>  <r_epik_Ionization_Penalty>  (1) 
5.6947270193771686

>  <r_epik_Ionization_Penalty_Charging>  (1) 
0.86989266313289404

>  <r_epik_Ionization_Penalty_Neutral>  (1) 
4.824834356244275

>  <r_epik_State_Penalty>  (1) 
0.69119986427039537

>  <r_glide_ring_energy>  (1) 
0

>  <r_i_docking_score>  (1) 
-6.7109330847043349

>  <r_i_glide_ecoul>  (1) 
-9.9866771329891399

>  <r_i_glide_eff_state_penalty>  (1) 
0.69119986427039537

>  <r_i_glide_einternal>  (1) 
2.2991462321018172

>  <r_i_glide_emodel>  (1) 
-62.111608872176511

>  <r_i_glide_emodel_strain>  (1) 
0.24489653904386444

>  <r_i_glide_energy>  (1) 
-36.630772292808054

>  <r_i_glide_erotb>  (1) 
0.96167990521069524

>  <r_i_glide_esite>  (1) 
-0.10000000000000001

>  <r_i_glide_evdw>  (1) 
-26.644095159818914

>  <r_i_glide_gscore>  (1) 
-7.4021329489747298

>  <r_i_glide_gscore_strain>  (1) 
0

>  <r_i_glide_hbond>  (1) 
-0.16957671225169763

>  <r_i_glide_ligand_efficiency>  (1) 
-0.30504241294110612

>  <r_i_glide_ligand_efficiency_ln>  (1) 
-1.6403968331336587

>  <r_i_glide_ligand_efficiency_sa>  (1) 
-0.85474083857900129

>  <r_i_glide_lipo>  (1) 
-2.4649746609652397

>  <r_i_glide_metal>  (1) 
-0

>  <r_i_glide_rewards>  (1) 
-2.7990551530291712

>  <r_lp_Energy>  (1) 
38.261415

>  <r_lp_tautomer_probability>  (1) 
1

>  <s_epik_Chemistry_Notes>  (1) 
This compound has an imine and may undergo hydrolysis.

>  <s_epik_cmdline>  (1) 
J2VwaWtfcHl0aG9uJywgJy1waHQnLCAnMS4wJywgJy1waCcsICc3LjQnLCAnLXRuJywgJzgnLCAnLW1hJywgJzUwMCcsICctaW1hZScsICc8aW5maWxlLm1hZT4nLCAnLW9tYWUnLCAnPG91dGZpbGUubWFlPic=

>  <s_epik_input>  (1) 
W0NIM11bQ0BASF0xTj1bQ0hdW0NAQEhdKFtDSDNdKVtDQEhdMVtDQEhdMltDSDJdTjJbQ0gyXVtDSDJdW0NIMl1PYyhbY0hdYzNGKVtjSF1bY0hdYzNG

>  <s_glide_docking_method>  (1) 
confgen

>  <s_i_glide_gridfile>  (1) 
gpcr_drd2_6luq_protein_autoprepared_prepared

>  <s_lp_Force_Field>  (1) 
S-OPLS

>  <s_lp_Variant>  (1) 
DiffSBDD_83-4

>  <s_m_source_file>  (1) 
generated_generic_title2_ligand_DiffSBDD_2026-06-23_prepared.sdf

>  <GenAI_Model>  (1) 
DiffSBDD

>  <Protein>  (1) 
generic_title2

$$$$
DiffSBDD_72
     RDKit          3D

  0  0  0  0  0  0  0  0  0  0999 V3000
M  V30 BEGIN CTAB
M  V30 COUNTS 47 49 0 0 1
M  V30 BEGIN ATOM
M  V30 1 C 12.211107 8.199272 -3.095028 0
M  V30 2 C 12.104524 8.558895 -7.613074 0
M  V30 3 C 9.601874 8.330707 -7.024964 0
M  V30 4 C 11.375219 8.121469 -5.224031 0
M  V30 5 C 12.800644 8.790338 -1.874535 0
M  V30 6 C 11.207132 6.803580 -4.844837 0
M  V30 7 C 7.316742 6.084949 -14.314406 0
M  V30 8 C 7.114950 7.473114 -13.706294 0
M  V30 9 C 11.004177 8.755378 -6.548454 0 CFG=1
M  V30 10 N 11.961704 8.889950 -4.208072 0
M  V30 11 C 9.420098 5.582016 -11.372420 0
M  V30 12 C 9.681607 7.102856 -9.329149 0 CFG=2
M  V30 13 C 9.545497 6.994274 -7.783980 0
M  V30 14 C 8.177261 5.997948 -12.188538 0 CFG=1
M  V30 15 C 8.024077 7.484436 -12.486191 0
M  V30 16 S 11.775028 6.523553 -3.221314 0
M  V30 17 O 8.297752 5.463381 -13.497475 0
M  V30 18 O 8.071689 5.350027 -9.456006 0
M  V30 19 N 9.377194 5.781010 -9.917717 0
M  V30 20 C 11.095241 7.578951 -9.770143 0
M  V30 21 C 11.673204 8.822923 -9.074385 0
M  V30 22 H 12.491167 7.541143 -7.556595 0
M  V30 23 H 12.953024 9.190169 -7.351526 0
M  V30 24 H 8.935767 8.289064 -6.162084 0
M  V30 25 H 9.172758 9.105459 -7.661151 0
M  V30 26 H 13.776252 9.190196 -2.119809 0
M  V30 27 H 12.165675 9.590019 -1.493563 0
M  V30 28 H 12.926101 8.031750 -1.104313 0
M  V30 29 H 10.784937 5.994145 -5.412398 0
M  V30 30 H 7.646525 6.125993 -15.352627 0
M  V30 31 H 6.390783 5.509112 -14.272184 0
M  V30 32 H 7.374382 8.264548 -14.408466 0
M  V30 33 H 6.070158 7.588353 -13.412718 0
M  V30 34 H 10.930522 9.831237 -6.382110 0
M  V30 35 H 10.323279 6.006510 -11.807250 0
M  V30 36 H 9.530817 4.505090 -11.506002 0
M  V30 37 H 8.975573 7.835987 -9.705731 0
M  V30 38 H 8.584434 6.567778 -7.498787 0
M  V30 39 H 10.287477 6.286376 -7.424967 0
M  V30 40 H 7.254243 5.598111 -11.765775 0
M  V30 41 H 7.607757 8.045600 -11.649239 0
M  V30 42 H 8.988058 7.921943 -12.746932 0
M  V30 43 H 7.544435 6.140977 -9.587347 0
M  V30 44 H 11.823452 6.790035 -9.631624 0
M  V30 45 H 11.076476 7.789939 -10.838437 0
M  V30 46 H 12.565329 9.118932 -9.627908 0
M  V30 47 H 10.987665 9.659920 -9.177943 0
M  V30 END ATOM
M  V30 BEGIN BOND
M  V30 1 1 5 1
M  V30 2 2 6 4
M  V30 3 1 8 7
M  V30 4 1 9 2
M  V30 5 1 9 3
M  V30 6 1 9 4
M  V30 7 2 10 1
M  V30 8 1 10 4
M  V30 9 1 13 3
M  V30 10 1 13 12
M  V30 11 1 14 11
M  V30 12 1 15 8
M  V30 13 1 15 14
M  V30 14 1 16 1
M  V30 15 1 16 6
M  V30 16 1 17 7
M  V30 17 1 17 14
M  V30 18 1 19 11
M  V30 19 1 19 12
M  V30 20 1 19 18
M  V30 21 1 20 12
M  V30 22 1 21 2
M  V30 23 1 21 20
M  V30 24 1 22 2
M  V30 25 1 23 2
M  V30 26 1 24 3
M  V30 27 1 25 3
M  V30 28 1 26 5
M  V30 29 1 27 5
M  V30 30 1 28 5
M  V30 31 1 29 6
M  V30 32 1 30 7
M  V30 33 1 31 7
M  V30 34 1 32 8
M  V30 35 1 33 8
M  V30 36 1 9 34 CFG=1
M  V30 37 1 35 11
M  V30 38 1 36 11
M  V30 39 1 12 37 CFG=3
M  V30 40 1 38 13
M  V30 41 1 39 13
M  V30 42 1 14 40 CFG=1
M  V30 43 1 41 15
M  V30 44 1 42 15
M  V30 45 1 43 18
M  V30 46 1 44 20
M  V30 47 1 45 20
M  V30 48 1 46 21
M  V30 49 1 47 21
M  V30 END BOND
M  V30 END CTAB
M  END
>  <i_epik_Tot_Q>  (1) 
0

>  <i_epik_Tot_abs_Q>  (1) 
0

>  <i_i_glide_confnum>  (1) 
408

>  <i_i_glide_lignum>  (1) 
117

>  <i_i_glide_posenum>  (1) 
156

>  <i_i_glide_rotatable_bonds>  (1) 
5

>  <i_lp_mmshare_version>  (1) 
72125

>  <i_m_source_file_index>  (1) 
73

>  <i_f3d_flags>  (1) 
0

>  <num_sample>  (1) 
100

>  <b_lp_Chiralities_Consistent>  (1) 
1

>  <r_epik_Charging_Adjusted_Penalty>  (1) 
0.31702420014140181

>  <r_epik_Ionization_Penalty>  (1) 
0.0051686073058934195

>  <r_epik_Ionization_Penalty_Charging>  (1) 
0

>  <r_epik_Ionization_Penalty_Neutral>  (1) 
0.0051686073058934195

>  <r_epik_State_Penalty>  (1) 
0.31702420014140181

>  <r_glide_ring_energy>  (1) 
0.87810811564376989

>  <r_i_docking_score>  (1) 
-6.7067323236149967

>  <r_i_glide_ecoul>  (1) 
-5.1493732556074656

>  <r_i_glide_eff_state_penalty>  (1) 
0.31702420014140181

>  <r_i_glide_einternal>  (1) 
6.4713409055514939

>  <r_i_glide_emodel>  (1) 
-52.883331106618144

>  <r_i_glide_emodel_strain>  (1) 
0.53523653339287591

>  <r_i_glide_energy>  (1) 
-39.107448010802059

>  <r_i_glide_erotb>  (1) 
0.76903323708162985

>  <r_i_glide_esite>  (1) 
-0.15876608205858037

>  <r_i_glide_evdw>  (1) 
-33.958074755194595

>  <r_i_glide_gscore>  (1) 
-7.0237565237563988

>  <r_i_glide_gscore_strain>  (1) 
0

>  <r_i_glide_hbond>  (1) 
-0.16

>  <r_i_glide_ligand_efficiency>  (1) 
-0.31936820588642839

>  <r_i_glide_ligand_efficiency_ln>  (1) 
-1.658226014785092

>  <r_i_glide_ligand_efficiency_sa>  (1) 
-0.88111266438753078

>  <r_i_glide_lipo>  (1) 
-2.8114081799513251

>  <r_i_glide_metal>  (1) 
-0

>  <r_i_glide_rewards>  (1) 
-2.192305772727273

>  <r_lp_Energy>  (1) 
12.292861

>  <s_epik_Chemistry_Notes>  (1) 
This compound has a N-S or N-O group and may undergo hydrolysis at high or low pH.

>  <s_epik_cmdline>  (1) 
J2VwaWtfcHl0aG9uJywgJy1waHQnLCAnMS4wJywgJy1waCcsICc3LjQnLCAnLXRuJywgJzgnLCAnLW1hJywgJzUwMCcsICctaW1hZScsICc8aW5maWxlLm1hZT4nLCAnLW9tYWUnLCAnPG91dGZpbGUubWFlPic=

>  <s_epik_input>  (1) 
W0NIM11jMW5jKFtjSF1zMSlbQ0BIXTJbQ0gyXVtDSDJdW0NIMl1bQ0BIXShbQ0gyXVtDSDJdMilOKFtPSF0pW0NIMl1bQ0BIXTNbQ0gyXVtDSDJdW0NIMl1PMw==

>  <s_glide_docking_method>  (1) 
confgen

>  <s_i_glide_gridfile>  (1) 
gpcr_drd2_6luq_protein_autoprepared_prepared

>  <s_lp_Force_Field>  (1) 
S-OPLS

>  <s_lp_Variant>  (1) 
DiffSBDD_72-1

>  <s_m_source_file>  (1) 
generated_generic_title2_ligand_DiffSBDD_2026-06-23_prepared.sdf

>  <GenAI_Model>  (1) 
DiffSBDD

>  <Protein>  (1) 
generic_title2

$$$$
DiffSBDD_62
     RDKit          3D

  0  0  0  0  0  0  0  0  0  0999 V3000
M  V30 BEGIN CTAB
M  V30 COUNTS 64 66 0 0 1
M  V30 BEGIN ATOM
M  V30 1 C 11.335231 7.623768 -10.458155 0
M  V30 2 C 7.599869 3.831851 -13.601653 0 CFG=1
M  V30 3 C 7.641935 0.116967 -13.712970 0
M  V30 4 C 7.305389 1.501472 -14.260142 0 CFG=2
M  V30 5 C 10.983562 6.788953 -4.513162 0
M  V30 6 C 8.393832 6.037822 -12.402449 0
M  V30 7 C 9.114199 6.688139 -11.219940 0 CFG=1
M  V30 8 C 11.951003 7.643474 -3.644876 0 CFG=1
M  V30 9 O 11.691905 9.043511 -3.700132 0
M  V30 10 O 7.777808 6.719807 -13.221412 0
M  V30 11 C 8.484776 4.507345 -12.531387 0
M  V30 12 C 11.937431 7.242953 -2.161857 0
M  V30 13 C 6.101519 4.143812 -13.347403 0
M  V30 14 O 11.775395 5.753430 -6.496817 0
M  V30 15 C 9.150131 5.858016 -9.921986 0 CFG=1
M  V30 16 C 9.708095 6.714456 -8.775995 0
M  V30 17 N 11.306738 7.957133 -6.652094 0
M  V30 18 C 7.903136 1.743368 -15.652230 0
M  V30 19 C 11.876575 9.673480 -4.956586 0
M  V30 20 C 11.806256 8.068451 -8.036184 0
M  V30 21 C 10.864116 9.190472 -6.004132 0
M  V30 22 C 8.094872 4.185382 -15.030996 0
M  V30 23 O 7.844922 2.446849 -13.342535 0
M  V30 24 C 11.375409 6.786769 -5.979356 0
M  V30 25 O 7.877430 5.425059 -9.509397 0
M  V30 26 C 7.637223 3.182076 -16.094738 0
M  V30 27 C 10.544073 7.072186 -11.630054 0
M  V30 28 C 10.972306 7.476356 -9.171095 0
M  V30 29 O 12.575386 5.999552 -1.985038 0
M  V30 30 H 12.238391 8.165849 -10.698986 0
M  V30 31 H 7.263009 -0.668573 -14.366512 0
M  V30 32 H 8.720190 -0.009338 -13.610315 0
M  V30 33 H 7.194171 -0.019937 -12.728164 0
M  V30 34 H 6.220507 1.585895 -14.302199 0
M  V30 35 H 11.052712 5.754361 -4.180570 0
M  V30 36 H 9.933373 7.013317 -4.448349 0
M  V30 37 H 8.575638 7.611035 -11.004748 0
M  V30 38 H 12.975290 7.505195 -3.984968 0
M  V30 39 H 9.528979 4.246397 -12.705529 0
M  V30 40 H 8.226808 4.062690 -11.572167 0
M  V30 41 H 10.934468 7.192155 -1.744341 0
M  V30 42 H 12.490869 7.982071 -1.582388 0
M  V30 43 H 5.858780 5.191103 -13.519670 0
M  V30 44 H 5.429726 3.582793 -13.985060 0
M  V30 45 H 5.830456 3.913691 -12.316187 0
M  V30 46 H 9.775382 4.974825 -10.057207 0
M  V30 47 H 9.868733 6.022059 -7.959942 0
M  V30 48 H 8.975341 7.443998 -8.429418 0
M  V30 49 H 8.974893 1.554470 -15.640096 0
M  V30 50 H 7.472925 1.044895 -16.371399 0
M  V30 51 H 11.704378 10.737376 -4.798815 0
M  V30 52 H 12.906548 9.574944 -5.306376 0
M  V30 53 H 12.011224 9.109032 -8.289462 0
M  V30 54 H 12.786441 7.590496 -8.078678 0
M  V30 55 H 9.864607 9.079483 -5.585025 0
M  V30 56 H 10.784125 9.974179 -6.746805 0
M  V30 57 H 7.768194 5.184907 -15.316373 0
M  V30 58 H 9.183675 4.221336 -15.040872 0
M  V30 59 H 7.367336 6.222828 -9.355198 0
M  V30 60 H 8.130074 3.384657 -17.046021 0
M  V30 61 H 6.575451 3.305144 -16.262297 0
M  V30 62 H 10.490281 7.821682 -12.416761 0
M  V30 63 H 11.080343 6.220342 -12.050054 0
M  V30 64 H 11.975771 5.306675 -2.228640 0
M  V30 END ATOM
M  V30 BEGIN BOND
M  V30 1 1 4 3
M  V30 2 1 7 6
M  V30 3 1 8 5
M  V30 4 1 9 8
M  V30 5 2 10 6
M  V30 6 1 2 11 CFG=1
M  V30 7 1 11 6
M  V30 8 1 12 8
M  V30 9 1 13 2
M  V30 10 1 15 7
M  V30 11 1 16 15
M  V30 12 1 18 4
M  V30 13 1 19 9
M  V30 14 1 20 17
M  V30 15 1 21 17
M  V30 16 1 21 19
M  V30 17 1 22 2
M  V30 18 1 23 2
M  V30 19 1 23 4
M  V30 20 1 24 5
M  V30 21 2 24 14
M  V30 22 1 24 17
M  V30 23 1 25 15
M  V30 24 1 26 18
M  V30 25 1 26 22
M  V30 26 1 27 1
M  V30 27 1 27 7
M  V30 28 2 28 1
M  V30 29 1 28 16
M  V30 30 1 28 20
M  V30 31 1 29 12
M  V30 32 1 30 1
M  V30 33 1 31 3
M  V30 34 1 32 3
M  V30 35 1 33 3
M  V30 36 1 4 34 CFG=3
M  V30 37 1 35 5
M  V30 38 1 36 5
M  V30 39 1 7 37 CFG=1
M  V30 40 1 8 38 CFG=3
M  V30 41 1 39 11
M  V30 42 1 40 11
M  V30 43 1 41 12
M  V30 44 1 42 12
M  V30 45 1 43 13
M  V30 46 1 44 13
M  V30 47 1 45 13
M  V30 48 1 15 46 CFG=3
M  V30 49 1 47 16
M  V30 50 1 48 16
M  V30 51 1 49 18
M  V30 52 1 50 18
M  V30 53 1 51 19
M  V30 54 1 52 19
M  V30 55 1 53 20
M  V30 56 1 54 20
M  V30 57 1 55 21
M  V30 58 1 56 21
M  V30 59 1 57 22
M  V30 60 1 58 22
M  V30 61 1 59 25
M  V30 62 1 60 26
M  V30 63 1 61 26
M  V30 64 1 62 27
M  V30 65 1 63 27
M  V30 66 1 64 29
M  V30 END BOND
M  V30 END CTAB
M  END
>  <i_epik_Tot_Q>  (1) 
0

>  <i_epik_Tot_abs_Q>  (1) 
0

>  <i_i_glide_confnum>  (1) 
143

>  <i_i_glide_lignum>  (1) 
99

>  <i_i_glide_posenum>  (1) 
116

>  <i_i_glide_rotatable_bonds>  (1) 
8

>  <i_lp_mmshare_version>  (1) 
72125

>  <i_m_source_file_index>  (1) 
63

>  <i_f3d_flags>  (1) 
0

>  <num_sample>  (1) 
100

>  <b_lp_Chiralities_Consistent>  (1) 
1

>  <r_epik_Charging_Adjusted_Penalty>  (1) 
0

>  <r_epik_Ionization_Penalty>  (1) 
1.687438170051347e-07

>  <r_epik_Ionization_Penalty_Charging>  (1) 
0

>  <r_epik_Ionization_Penalty_Neutral>  (1) 
1.687438170051347e-07

>  <r_epik_State_Penalty>  (1) 
-0

>  <r_glide_ring_energy>  (1) 
0

>  <r_i_docking_score>  (1) 
-6.7060646978899729

>  <r_i_glide_ecoul>  (1) 
-4.7126692370214878

>  <r_i_glide_eff_state_penalty>  (1) 
-0

>  <r_i_glide_einternal>  (1) 
9.8283097357075455

>  <r_i_glide_emodel>  (1) 
-37.969369208201478

>  <r_i_glide_emodel_strain>  (1) 
0.54459594632189123

>  <r_i_glide_energy>  (1) 
-33.580844305755136

>  <r_i_glide_erotb>  (1) 
0.7044771691270324

>  <r_i_glide_esite>  (1) 
-0.010506543160444394

>  <r_i_glide_evdw>  (1) 
-28.868175068733645

>  <r_i_glide_gscore>  (1) 
-6.7060646978899729

>  <r_i_glide_gscore_strain>  (1) 
0

>  <r_i_glide_hbond>  (1) 
-0.16

>  <r_i_glide_ligand_efficiency>  (1) 
-0.23124361027206802

>  <r_i_glide_ligand_efficiency_ln>  (1) 
-1.535518764688478

>  <r_i_glide_ligand_efficiency_sa>  (1) 
-0.71045363467121536

>  <r_i_glide_lipo>  (1) 
-3.0197211867502656

>  <r_i_glide_metal>  (1) 
-0

>  <r_i_glide_rewards>  (1) 
-2.0700049981163895

>  <r_lp_Energy>  (1) 
16.964938999999998

>  <r_lp_tautomer_probability>  (1) 
1

>  <s_epik_cmdline>  (1) 
J2VwaWtfcHl0aG9uJywgJy1waHQnLCAnMS4wJywgJy1waCcsICc3LjQnLCAnLXRuJywgJzgnLCAnLW1hJywgJzUwMCcsICctaW1hZScsICc8aW5maWxlLm1hZT4nLCAnLW9tYWUnLCAnPG91dGZpbGUubWFlPic=

>  <s_epik_input>  (1) 
W09IXVtDSDJdW0NASF0xW0NIMl1DKD1PKU4oW0NIMl1bQ0gyXU8xKVtDSDJdQyg9W0NIXVtDSDJdMilbQ0gyXVtDQEBIXShbT0hdKVtDQEBIXTJDKD1PKVtDSDJdW0NAQF0zKFtDSDNdKVtDSDJdW0NIMl1bQ0gyXVtDQEhdKE8zKVtDSDNd

>  <s_glide_docking_method>  (1) 
confgen

>  <s_i_glide_gridfile>  (1) 
gpcr_drd2_6luq_protein_autoprepared_prepared

>  <s_lp_Force_Field>  (1) 
S-OPLS

>  <s_lp_Variant>  (1) 
DiffSBDD_62-1

>  <s_m_source_file>  (1) 
generated_generic_title2_ligand_DiffSBDD_2026-06-23_prepared.sdf

>  <GenAI_Model>  (1) 
DiffSBDD

>  <Protein>  (1) 
generic_title2

$$$$
DiffSBDD_14
     RDKit          3D

  0  0  0  0  0  0  0  0  0  0999 V3000
M  V30 BEGIN CTAB
M  V30 COUNTS 47 48 0 0 1
M  V30 BEGIN ATOM
M  V30 1 N 10.104644 7.200739 -11.100120 0
M  V30 2 C 6.078271 4.624476 -11.539328 0
M  V30 3 N 6.896456 5.590223 -10.785029 0 CHG=1
M  V30 4 C 10.860963 6.790253 -5.887025 0
M  V30 5 C 9.284940 6.171109 -10.658385 0
M  V30 6 C 6.782061 4.410703 -12.881902 0
M  V30 7 C 11.266333 7.474765 -8.909085 0
M  V30 8 C 8.865517 5.348700 -13.964148 0
M  V30 9 C 11.375392 6.684079 -4.585226 0
M  V30 10 C 10.805852 8.040371 -6.526549 0
M  V30 11 C 11.838585 7.837820 -3.906721 0
M  V30 12 C 11.775410 9.095961 -4.549958 0
M  V30 13 C 11.261544 9.195434 -5.858041 0
M  V30 14 C 10.990110 7.780468 -10.374651 0
M  V30 15 O 9.375411 5.473920 -9.644196 0
M  V30 16 C 9.092914 3.615485 -12.191665 0
M  V30 17 C 10.271611 8.135563 -7.939279 0
M  V30 18 N 12.575327 8.790227 -1.704596 0
M  V30 19 N 12.361379 7.740479 -2.598886 0
M  V30 20 C 8.081599 5.943226 -11.586115 0 CFG=1
M  V30 21 C 8.246210 4.824207 -12.657154 0
M  V30 22 O 12.180301 6.495335 -1.985058 0
M  V30 23 H 5.058682 4.989374 -11.666865 0
M  V30 24 H 6.031894 3.693091 -10.973763 0
M  V30 25 H 7.230336 5.139856 -9.944343 0
M  V30 26 H 10.512342 5.906954 -6.400899 0
M  V30 27 H 6.321139 5.068537 -13.620932 0
M  V30 28 H 6.671014 3.391320 -13.254139 0
M  V30 29 H 12.255605 7.884556 -8.700511 0
M  V30 30 H 11.375343 6.408033 -8.724686 0
M  V30 31 H 8.325737 6.216001 -14.345273 0
M  V30 32 H 9.908175 5.632182 -13.817758 0
M  V30 33 H 8.846526 4.584355 -14.742009 0
M  V30 34 H 11.417036 5.716338 -4.109242 0
M  V30 35 H 12.125076 9.982149 -4.042057 0
M  V30 36 H 11.221385 10.156611 -6.348986 0
M  V30 37 H 11.624169 8.566518 -10.785026 0
M  V30 38 H 8.849519 3.291180 -11.185102 0
M  V30 39 H 8.971681 2.757267 -12.852806 0
M  V30 40 H 10.154986 3.864021 -12.189688 0
M  V30 41 H 9.294550 7.651685 -7.986798 0
M  V30 42 H 10.109506 9.178899 -8.207371 0
M  V30 43 H 12.965543 8.418808 -0.841270 0
M  V30 44 H 13.248083 9.448613 -2.095766 0
M  V30 45 H 7.830332 6.884027 -12.080611 0
M  V30 46 H 11.260238 6.442026 -1.772182 0
M  V30 47 H 6.432073 6.452159 -10.502158 0
M  V30 END ATOM
M  V30 BEGIN BOND
M  V30 1 1 3 2
M  V30 2 1 5 1
M  V30 3 1 6 2
M  V30 4 2 9 4
M  V30 5 1 10 4
M  V30 6 1 11 9
M  V30 7 2 12 11
M  V30 8 2 13 10
M  V30 9 1 13 12
M  V30 10 2 14 1
M  V30 11 1 14 7
M  V30 12 2 15 5
M  V30 13 1 17 7
M  V30 14 1 17 10
M  V30 15 1 19 11
M  V30 16 1 19 18
M  V30 17 1 20 3
M  V30 18 1 20 5
M  V30 19 1 21 6
M  V30 20 1 21 8
M  V30 21 1 21 16
M  V30 22 1 21 20
M  V30 23 1 22 19
M  V30 24 1 23 2
M  V30 25 1 24 2
M  V30 26 1 25 3
M  V30 27 1 26 4
M  V30 28 1 27 6
M  V30 29 1 28 6
M  V30 30 1 29 7
M  V30 31 1 30 7
M  V30 32 1 31 8
M  V30 33 1 32 8
M  V30 34 1 33 8
M  V30 35 1 34 9
M  V30 36 1 35 12
M  V30 37 1 36 13
M  V30 38 1 37 14
M  V30 39 1 38 16
M  V30 40 1 39 16
M  V30 41 1 40 16
M  V30 42 1 41 17
M  V30 43 1 42 17
M  V30 44 1 43 18
M  V30 45 1 44 18
M  V30 46 1 20 45 CFG=3
M  V30 47 1 46 22
M  V30 48 1 47 3
M  V30 END BOND
M  V30 END CTAB
M  END
>  <i_epik_Tot_Q>  (1) 
1

>  <i_epik_Tot_abs_Q>  (1) 
1

>  <i_i_glide_confnum>  (1) 
151

>  <i_i_glide_lignum>  (1) 
29

>  <i_i_glide_posenum>  (1) 
380

>  <i_i_glide_rotatable_bonds>  (1) 
7

>  <i_lp_mmshare_version>  (1) 
72125

>  <i_m_source_file_index>  (1) 
15

>  <i_f3d_flags>  (1) 
0

>  <num_sample>  (1) 
100

>  <b_lp_Chiralities_Consistent>  (1) 
1

>  <r_epik_Charging_Adjusted_Penalty>  (1) 
1.3617227199011863

>  <r_epik_Ionization_Penalty>  (1) 
0.68407859148239814

>  <r_epik_Ionization_Penalty_Charging>  (1) 
0.68086135995059327

>  <r_epik_Ionization_Penalty_Neutral>  (1) 
0.0032172315318048095

>  <r_epik_State_Penalty>  (1) 
0.68086135995059305

>  <r_glide_ring_energy>  (1) 
0

>  <r_i_docking_score>  (1) 
-6.6995563201591866

>  <r_i_glide_ecoul>  (1) 
-6.3287527286864744

>  <r_i_glide_eff_state_penalty>  (1) 
0.68086135995059305

>  <r_i_glide_einternal>  (1) 
2.001507403898148

>  <r_i_glide_emodel>  (1) 
-67.954962388358595

>  <r_i_glide_emodel_strain>  (1) 
0.0040270295158819636

>  <r_i_glide_energy>  (1) 
-42.860699226892699

>  <r_i_glide_erotb>  (1) 
1.1872890279772172

>  <r_i_glide_esite>  (1) 
-0.16179664263707125

>  <r_i_glide_evdw>  (1) 
-36.531946498206224

>  <r_i_glide_gscore>  (1) 
-7.3804176801097796

>  <r_i_glide_gscore_strain>  (1) 
0

>  <r_i_glide_hbond>  (1) 
-0.35462655277910671

>  <r_i_glide_ligand_efficiency>  (1) 
-0.30452528727996303

>  <r_i_glide_ligand_efficiency_ln>  (1) 
-1.6376159369012548

>  <r_i_glide_ligand_efficiency_sa>  (1) 
-0.85329183213758719

>  <r_i_glide_lipo>  (1) 
-2.490663365975597

>  <r_i_glide_metal>  (1) 
-0

>  <r_i_glide_rewards>  (1) 
-2.7847099124819374

>  <r_lp_Energy>  (1) 
33.931866999999997

>  <s_epik_Chemistry_Notes>  (1) 
This compound has an imine and may undergo hydrolysis. This compound has a N-S or N-O group and may undergo hydrolysis at high or low pH.

>  <s_epik_cmdline>  (1) 
J2VwaWtfcHl0aG9uJywgJy1waHQnLCAnMS4wJywgJy1waCcsICc3LjQnLCAnLXRuJywgJzgnLCAnLW1hJywgJzUwMCcsICctaW1hZScsICc8aW5maWxlLm1hZT4nLCAnLW9tYWUnLCAnPG91dGZpbGUubWFlPic=

>  <s_epik_input>  (1) 
W0NIM11DMShbQ0gzXSlbQ0gyXVtDSDJdW05IXVtDQEhdMUMoPU8pL049W0NIXVxbQ0gyXVtDSDJdYzJbY0hdW2NIXWMoW2NIXVtjSF0yKU4oW05IMl0pW09IXQ==

>  <s_glide_docking_method>  (1) 
confgen

>  <s_i_glide_gridfile>  (1) 
gpcr_drd2_6luq_protein_autoprepared_prepared

>  <s_lp_Force_Field>  (1) 
S-OPLS

>  <s_lp_Variant>  (1) 
DiffSBDD_14-4

>  <s_m_source_file>  (1) 
generated_generic_title2_ligand_DiffSBDD_2026-06-23_prepared.sdf

>  <GenAI_Model>  (1) 
DiffSBDD

>  <Protein>  (1) 
generic_title2

$$$$
DiffSBDD_44
     RDKit          3D

  0  0  0  0  0  0  0  0  0  0999 V3000
M  V30 BEGIN CTAB
M  V30 COUNTS 46 48 0 0 1
M  V30 BEGIN ATOM
M  V30 1 C 5.598259 4.362311 -12.264466 0 CFG=2
M  V30 2 C 10.434116 6.564741 -7.037979 0
M  V30 3 C 11.368629 7.734132 -5.031313 0
M  V30 4 C 6.756066 4.276271 -13.171661 0 CFG=1
M  V30 5 O 10.174161 7.630756 -9.142042 0
M  V30 6 C 12.242884 7.898254 -2.348338 0
M  V30 7 C 11.376191 6.580221 -4.208414 0
M  V30 8 C 7.438561 5.066724 -10.640868 0
M  V30 9 O 11.776291 10.093137 -5.267390 0
M  V30 10 O 8.020136 0.717416 -13.566914 0
M  V30 11 C 10.920394 7.668467 -6.440026 0
M  V30 12 C 11.793218 8.970763 -4.491387 0
M  V30 13 O 8.791613 3.118549 -12.696261 0
M  V30 14 C 7.146698 1.794349 -13.834672 0
M  V30 15 C 9.395544 5.366111 -9.050953 0
M  V30 16 N 5.735767 7.470382 -11.585288 0 CHG=1
M  V30 17 C 8.900075 5.520922 -10.508845 0
M  V30 18 O 5.416439 4.038726 -13.643672 0
M  V30 19 C 6.786698 5.267388 -12.012321 0 CFG=2
M  V30 20 C 7.663984 3.075927 -13.182751 0
M  V30 21 C 11.814947 6.666343 -2.872482 0
M  V30 22 C 10.026208 6.624155 -8.446152 0
M  V30 23 C 6.664449 6.721826 -12.437895 0
M  V30 24 C 12.230276 9.048632 -3.155289 0
M  V30 25 H 5.428379 3.536469 -11.581423 0
M  V30 26 H 10.331487 5.632108 -6.510612 0
M  V30 27 H 12.579602 7.962672 -1.324833 0
M  V30 28 H 11.053362 5.630155 -4.598809 0
M  V30 29 H 7.370261 4.014763 -10.363471 0
M  V30 30 H 6.831400 5.587376 -9.901395 0
M  V30 31 H 11.986526 10.888382 -4.805802 0
M  V30 32 H 8.905264 1.052781 -13.590278 0
M  V30 33 H 10.995937 8.582211 -7.010790 0
M  V30 34 H 7.080759 1.949366 -14.911905 0
M  V30 35 H 6.147638 1.559267 -13.468259 0
M  V30 36 H 10.104410 4.540838 -8.978292 0
M  V30 37 H 8.558057 5.097927 -8.404839 0
M  V30 38 H 5.571429 8.386081 -11.976623 0
M  V30 39 H 6.175412 7.590580 -10.650913 0
M  V30 40 H 9.551647 4.941225 -11.159914 0
M  V30 41 H 8.976024 6.547081 -10.861559 0
M  V30 42 H 11.823029 5.782817 -2.249762 0
M  V30 43 H 7.639504 7.205695 -12.443312 0
M  V30 44 H 6.289629 6.763458 -13.462704 0
M  V30 45 H 12.557800 9.988960 -2.747965 0
M  V30 46 H 4.862832 6.977083 -11.474493 0
M  V30 END ATOM
M  V30 BEGIN BOND
M  V30 1 1 4 1
M  V30 2 2 7 3
M  V30 3 2 11 2
M  V30 4 1 11 3
M  V30 5 1 12 3
M  V30 6 1 12 9
M  V30 7 1 14 10
M  V30 8 1 17 8
M  V30 9 1 17 15
M  V30 10 1 18 1
M  V30 11 1 18 4
M  V30 12 1 19 1
M  V30 13 1 19 4
M  V30 14 1 19 8 CFG=1
M  V30 15 1 4 20 CFG=1
M  V30 16 2 20 13
M  V30 17 1 20 14
M  V30 18 2 21 6
M  V30 19 1 21 7
M  V30 20 1 22 2
M  V30 21 2 22 5
M  V30 22 1 22 15
M  V30 23 1 23 16
M  V30 24 1 23 19
M  V30 25 1 24 6
M  V30 26 2 24 12
M  V30 27 1 1 25 CFG=1
M  V30 28 1 26 2
M  V30 29 1 27 6
M  V30 30 1 28 7
M  V30 31 1 29 8
M  V30 32 1 30 8
M  V30 33 1 31 9
M  V30 34 1 32 10
M  V30 35 1 33 11
M  V30 36 1 34 14
M  V30 37 1 35 14
M  V30 38 1 36 15
M  V30 39 1 37 15
M  V30 40 1 38 16
M  V30 41 1 39 16
M  V30 42 1 40 17
M  V30 43 1 41 17
M  V30 44 1 42 21
M  V30 45 1 43 23
M  V30 46 1 44 23
M  V30 47 1 45 24
M  V30 48 1 46 16
M  V30 END BOND
M  V30 END CTAB
M  END
>  <i_epik_Tot_Q>  (1) 
1

>  <i_epik_Tot_abs_Q>  (1) 
1

>  <i_i_glide_confnum>  (1) 
219

>  <i_i_glide_lignum>  (1) 
71

>  <i_i_glide_posenum>  (1) 
203

>  <i_i_glide_rotatable_bonds>  (1) 
11

>  <i_lp_mmshare_version>  (1) 
72125

>  <i_m_source_file_index>  (1) 
45

>  <i_f3d_flags>  (1) 
0

>  <num_sample>  (1) 
100

>  <b_lp_Chiralities_Consistent>  (1) 
1

>  <r_epik_Charging_Adjusted_Penalty>  (1) 
0.0039975134785533318

>  <r_epik_Ionization_Penalty>  (1) 
0.0083805373542956835

>  <r_epik_Ionization_Penalty_Charging>  (1) 
0.0039975134785533318

>  <r_epik_Ionization_Penalty_Neutral>  (1) 
0.0043830238757423508

>  <r_epik_State_Penalty>  (1) 
-0

>  <r_glide_ring_energy>  (1) 
0

>  <r_i_docking_score>  (1) 
-6.692682134497784

>  <r_i_glide_ecoul>  (1) 
-9.1017843201158612

>  <r_i_glide_eff_state_penalty>  (1) 
-0

>  <r_i_glide_einternal>  (1) 
6.0058217362727078

>  <r_i_glide_emodel>  (1) 
-64.895923304331063

>  <r_i_glide_emodel_strain>  (1) 
0.52776697173526799

>  <r_i_glide_energy>  (1) 
-43.864586930476335

>  <r_i_glide_erotb>  (1) 
1.3638172886518747

>  <r_i_glide_esite>  (1) 
-0.15885667843655096

>  <r_i_glide_evdw>  (1) 
-34.762802610360474

>  <r_i_glide_gscore>  (1) 
-6.692682134497784

>  <r_i_glide_gscore_strain>  (1) 
0

>  <r_i_glide_hbond>  (1) 
-0.14082245135359012

>  <r_i_glide_ligand_efficiency>  (1) 
-0.27886175560407434

>  <r_i_glide_ligand_efficiency_ln>  (1) 
-1.6018659419571006

>  <r_i_glide_ligand_efficiency_sa>  (1) 
-0.80437649439029146

>  <r_i_glide_lipo>  (1) 
-2.717124071094581

>  <r_i_glide_metal>  (1) 
-0

>  <r_i_glide_rewards>  (1) 
-1.9362884437295342

>  <r_lp_Energy>  (1) 
24.892022999999998

>  <r_lp_tautomer_probability>  (1) 
1

>  <s_epik_cmdline>  (1) 
J2VwaWtfcHl0aG9uJywgJy1waHQnLCAnMS4wJywgJy1waCcsICc3LjQnLCAnLXRuJywgJzgnLCAnLW1hJywgJzUwMCcsICctaW1hZScsICc8aW5maWxlLm1hZT4nLCAnLW9tYWUnLCAnPG91dGZpbGUubWFlPic=

>  <s_epik_input>  (1) 
W09IXVtDSDJdQyg9TylbQ0BdMTJbQ0BIXShPMSlbQ0BAXTIoW0NIMl1bTkgyXSlbQ0gyXVtDSDJdW0NIMl1DKD1PKS9bQ0hdPVtDSF0vYzNbY0hdW2NIXVtjSF1bY0hdYzNbT0hd

>  <s_glide_docking_method>  (1) 
confgen

>  <s_i_glide_gridfile>  (1) 
gpcr_drd2_6luq_protein_autoprepared_prepared

>  <s_lp_Force_Field>  (1) 
S-OPLS

>  <s_lp_Variant>  (1) 
DiffSBDD_44-1

>  <s_m_source_file>  (1) 
generated_generic_title2_ligand_DiffSBDD_2026-06-23_prepared.sdf

>  <GenAI_Model>  (1) 
DiffSBDD

>  <Protein>  (1) 
generic_title2

$$$$
DiffSBDD_70
     RDKit          3D

  0  0  0  0  0  0  0  0  0  0999 V3000
M  V30 BEGIN CTAB
M  V30 COUNTS 74 78 0 0 1
M  V30 BEGIN ATOM
M  V30 1 C 7.903337 0.552341 -13.285728 0
M  V30 2 C 10.303224 6.587481 -5.459028 0
M  V30 3 C 7.589827 2.998900 -15.202709 0
M  V30 4 C 9.210100 6.261613 -6.496063 0
M  V30 5 C 15.464748 5.959033 -17.896628 0
M  V30 6 N 14.769380 3.671811 -17.561968 0
M  V30 7 C 11.300199 7.727605 -10.720383 0
M  V30 8 C 10.261767 7.367978 -8.476401 0 CFG=1
M  V30 9 C 11.185621 8.434925 -7.891516 0
M  V30 10 C 5.949322 2.807522 -13.235117 0
M  V30 11 C 9.990974 7.310002 -10.000300 0 CFG=2
M  V30 12 O 10.822483 4.800050 -17.085691 0
M  V30 13 C 9.715919 8.487222 -7.592295 0 CFG=2
M  V30 14 C 9.857602 5.592242 -11.976528 0
M  V30 15 C 9.359382 6.008245 -10.586014 0
M  V30 16 C 7.414183 2.939065 -13.694675 0 CFG=1
M  V30 17 C 13.800535 7.740729 -17.815708 0
M  V30 18 C 9.807041 3.830914 -17.357080 0
M  V30 19 O 8.242722 1.920709 -13.132175 0
M  V30 20 Cl 16.362739 8.494059 -18.302680 0
M  V30 21 C 9.352261 4.252501 -12.524864 0
M  V30 22 C 8.233678 5.183668 -14.640373 0 CFG=2
M  V30 23 C 15.131802 7.326435 -17.985061 0
M  V30 24 C 8.421476 5.288394 -9.927308 0
M  V30 25 C 7.171118 6.291733 -14.759143 0
M  V30 26 N 8.042104 4.159361 -15.632836 0
M  V30 27 C 12.799051 6.790511 -17.565491 0
M  V30 28 C 8.419089 4.421100 -17.026931 0
M  V30 29 C 14.467769 4.988526 -17.646518 0
M  V30 30 N 12.443166 3.132156 -17.188507 0
M  V30 31 C 13.741335 2.837609 -17.337600 0
M  V30 32 N 9.092471 7.194177 -7.637137 0 CFG=2 CHG=1
M  V30 33 O 7.350732 2.033485 -15.927782 0
M  V30 34 C 8.026188 4.349547 -13.314851 0 CFG=1
M  V30 35 C 12.152376 4.448956 -17.255039 0
M  V30 36 C 13.132826 5.424648 -17.486973 0
M  V30 37 H 8.702162 -0.009762 -12.809349 0
M  V30 38 H 6.972751 0.298549 -12.778747 0
M  V30 39 H 7.853644 0.225193 -14.322361 0
M  V30 40 H 10.175455 5.990240 -4.557366 0
M  V30 41 H 11.298108 6.366387 -5.844206 0
M  V30 42 H 10.272703 7.631469 -5.150959 0
M  V30 43 H 8.238102 6.223319 -6.008233 0
M  V30 44 H 9.375411 5.270890 -6.916882 0
M  V30 45 H 16.490534 5.649432 -18.025338 0
M  V30 46 H 11.285856 7.590224 -11.797525 0
M  V30 47 H 11.501793 8.786244 -10.572342 0
M  V30 48 H 12.164830 7.190206 -10.335130 0
M  V30 49 H 11.857271 8.135084 -7.092482 0
M  V30 50 H 11.563273 9.256194 -8.493361 0
M  V30 51 H 5.340306 3.639583 -13.588051 0
M  V30 52 H 5.486057 1.885145 -13.585096 0
M  V30 53 H 5.898224 2.815406 -12.147069 0
M  V30 54 H 9.262092 8.086485 -10.238594 0
M  V30 55 H 9.080777 9.190230 -8.118394 0
M  V30 56 H 9.618669 6.396865 -12.670514 0
M  V30 57 H 10.941029 5.504483 -11.985027 0
M  V30 58 H 13.547400 8.790214 -17.881506 0
M  V30 59 H 9.961443 2.900397 -16.809063 0
M  V30 60 H 9.852268 3.586334 -18.419226 0
M  V30 61 H 10.118366 3.868958 -13.185024 0
M  V30 62 H 9.318818 3.511077 -11.727690 0
M  V30 63 H 9.241291 5.590230 -14.736214 0
M  V30 64 H 8.059842 5.575828 -8.963826 0
M  V30 65 H 8.000109 4.396013 -10.359587 0
M  V30 66 H 7.320082 7.052431 -13.991791 0
M  V30 67 H 7.209618 6.790228 -15.725439 0
M  V30 68 H 6.163468 5.891947 -14.638475 0
M  V30 69 H 11.775392 7.107194 -17.439871 0
M  V30 70 H 7.669710 3.973765 -17.682410 0
M  V30 71 H 8.405545 5.488219 -17.249425 0
M  V30 72 H 13.994423 1.789276 -17.270828 0
M  V30 73 H 7.317431 4.870661 -12.669052 0
M  V30 74 H 8.214538 7.190225 -8.155044 0
M  V30 END ATOM
M  V30 BEGIN BOND
M  V30 1 1 4 2
M  V30 2 1 8 9 CFG=1
M  V30 3 1 11 7
M  V30 4 1 11 8
M  V30 5 1 13 8
M  V30 6 1 13 9
M  V30 7 1 15 11
M  V30 8 1 15 14
M  V30 9 1 16 3
M  V30 10 1 16 10
M  V30 11 1 18 12
M  V30 12 1 19 1
M  V30 13 1 16 19 CFG=1
M  V30 14 1 21 14
M  V30 15 2 23 5
M  V30 16 1 23 17
M  V30 17 1 23 20
M  V30 18 2 24 15
M  V30 19 1 25 22
M  V30 20 1 26 3
M  V30 21 1 26 22
M  V30 22 2 27 17
M  V30 23 1 28 18
M  V30 24 1 28 26
M  V30 25 1 29 5
M  V30 26 2 29 6
M  V30 27 1 31 6
M  V30 28 2 31 30
M  V30 29 1 32 4
M  V30 30 1 32 8
M  V30 31 1 32 13
M  V30 32 2 33 3
M  V30 33 1 34 16
M  V30 34 1 34 21
M  V30 35 1 34 22
M  V30 36 1 35 12
M  V30 37 1 35 30
M  V30 38 1 36 27
M  V30 39 1 36 29
M  V30 40 2 36 35
M  V30 41 1 37 1
M  V30 42 1 38 1
M  V30 43 1 39 1
M  V30 44 1 40 2
M  V30 45 1 41 2
M  V30 46 1 42 2
M  V30 47 1 43 4
M  V30 48 1 44 4
M  V30 49 1 45 5
M  V30 50 1 46 7
M  V30 51 1 47 7
M  V30 52 1 48 7
M  V30 53 1 49 9
M  V30 54 1 50 9
M  V30 55 1 51 10
M  V30 56 1 52 10
M  V30 57 1 53 10
M  V30 58 1 11 54 CFG=1
M  V30 59 1 13 55 CFG=3
M  V30 60 1 56 14
M  V30 61 1 57 14
M  V30 62 1 58 17
M  V30 63 1 59 18
M  V30 64 1 60 18
M  V30 65 1 61 21
M  V30 66 1 62 21
M  V30 67 1 22 63 CFG=1
M  V30 68 1 64 24
M  V30 69 1 65 24
M  V30 70 1 66 25
M  V30 71 1 67 25
M  V30 72 1 68 25
M  V30 73 1 69 27
M  V30 74 1 70 28
M  V30 75 1 71 28
M  V30 76 1 72 31
M  V30 77 1 34 73 CFG=1
M  V30 78 1 32 74 CFG=3
M  V30 END BOND
M  V30 END CTAB
M  END
>  <i_epik_Tot_Q>  (1) 
1

>  <i_epik_Tot_abs_Q>  (1) 
1

>  <i_i_glide_confnum>  (1) 
681

>  <i_i_glide_lignum>  (1) 
114

>  <i_i_glide_posenum>  (1) 
180

>  <i_i_glide_rotatable_bonds>  (1) 
11

>  <i_lp_mmshare_version>  (1) 
72125

>  <i_m_source_file_index>  (1) 
71

>  <i_f3d_flags>  (1) 
0

>  <num_sample>  (1) 
100

>  <b_lp_Chiralities_Consistent>  (1) 
1

>  <r_epik_Charging_Adjusted_Penalty>  (1) 
0.028882640618341202

>  <r_epik_Ionization_Penalty>  (1) 
0.014531529159765241

>  <r_epik_Ionization_Penalty_Charging>  (1) 
0.014441320309170608

>  <r_epik_Ionization_Penalty_Neutral>  (1) 
9.020885059463329e-05

>  <r_epik_State_Penalty>  (1) 
0.014441320309170594

>  <r_glide_ring_energy>  (1) 
0

>  <r_i_docking_score>  (1) 
-6.6880933661973581

>  <r_i_glide_ecoul>  (1) 
-4.9156814736075507

>  <r_i_glide_eff_state_penalty>  (1) 
0.014441320309170594

>  <r_i_glide_einternal>  (1) 
15.072645626079968

>  <r_i_glide_emodel>  (1) 
-52.103574497583722

>  <r_i_glide_emodel_strain>  (1) 
3.9249248328938648

>  <r_i_glide_energy>  (1) 
-43.125810046628004

>  <r_i_glide_erotb>  (1) 
0.4345884509201362

>  <r_i_glide_esite>  (1) 
-0.10000000000000001

>  <r_i_glide_evdw>  (1) 
-38.210128573020455

>  <r_i_glide_gscore>  (1) 
-6.7025346865065289

>  <r_i_glide_gscore_strain>  (1) 
0

>  <r_i_glide_hbond>  (1) 
-0.28840544546299995

>  <r_i_glide_ligand_efficiency>  (1) 
-0.18578037128325994

>  <r_i_glide_ligand_efficiency_ln>  (1) 
-1.4591612811029735

>  <r_i_glide_ligand_efficiency_sa>  (1) 
-0.61343327024995697

>  <r_i_glide_lipo>  (1) 
-2.3251779211922989

>  <r_i_glide_metal>  (1) 
-0

>  <r_i_glide_rewards>  (1) 
-1.7756811210792107

>  <r_lp_Energy>  (1) 
37.300145999999998

>  <r_lp_tautomer_probability>  (1) 
1

>  <s_epik_cmdline>  (1) 
J2VwaWtfcHl0aG9uJywgJy1waHQnLCAnMS4wJywgJy1waCcsICc3LjQnLCAnLXRuJywgJzgnLCAnLW1hJywgJzUwMCcsICctaW1hZScsICc8aW5maWxlLm1hZT4nLCAnLW9tYWUnLCAnPG91dGZpbGUubWFlPic=

>  <s_epik_input>  (1) 
W2NIXTFjKENsKVtjSF1bY0hdYyhjMTIpYyhuW2NIXW4yKU9bQ0gyXVtDSDJdTihDKD1PKVtDQEBdMyhbQ0gzXSlPW0NIM10pW0NAQEhdKFtDSDNdKVtDQEBIXTNbQ0gyXVtDSDJdQyg9W0NIMl0pW0NASF0oW0NIM10pQzQ1W0NASF0oW0NIMl00KU41W0NIMl1bQ0gzXQ==

>  <s_glide_docking_method>  (1) 
confgen

>  <s_i_glide_gridfile>  (1) 
gpcr_drd2_6luq_protein_autoprepared_prepared

>  <s_lp_Force_Field>  (1) 
S-OPLS

>  <s_lp_Variant>  (1) 
DiffSBDD_70-2

>  <s_m_source_file>  (1) 
generated_generic_title2_ligand_DiffSBDD_2026-06-23_prepared.sdf

>  <GenAI_Model>  (1) 
DiffSBDD

>  <Protein>  (1) 
generic_title2

$$$$
DiffSBDD_52
     RDKit          3D

  0  0  0  0  0  0  0  0  0  0999 V3000
M  V30 BEGIN CTAB
M  V30 COUNTS 50 53 0 0 1
M  V30 BEGIN ATOM
M  V30 1 C 11.894329 9.362366 -3.689914 0
M  V30 2 F 12.680533 8.381216 -1.585023 0
M  V30 3 C 8.424643 6.284921 -12.326921 0 CFG=1
M  V30 4 C 6.336660 4.538973 -11.736530 0
M  V30 5 C 7.149967 5.022401 -10.552507 0 CFG=2
M  V30 6 C 11.949219 6.901422 -3.191611 0
M  V30 7 C 10.314541 6.202535 -7.139560 0
M  V30 8 C 6.338049 3.989906 -14.207726 0
M  V30 9 C 12.175411 8.165083 -2.809226 0
M  V30 10 N 8.174794 5.990227 -10.891631 0 CFG=1 CHG=1
M  V30 11 C 10.864290 7.709545 -5.397259 0 CFG=2
M  V30 12 O 9.647653 6.752112 -12.334169 0 CHG=-1
M  V30 13 C 6.736024 5.190238 -15.059526 0
M  V30 14 O 10.921668 7.432682 -6.789715 0
M  V30 15 C 11.631630 9.020627 -5.169183 0
M  V30 16 C 7.186391 4.085124 -12.934858 0 CFG=1
M  V30 17 C 8.213448 5.386108 -14.743287 0
M  V30 18 C 9.820754 6.217998 -8.575887 0
M  V30 19 C 11.388922 6.519369 -4.545403 0
M  V30 20 C 8.613950 4.727101 -10.301101 0 CFG=1
M  V30 21 C 9.185603 4.858570 -8.907007 0
M  V30 22 C 8.369518 5.033158 -13.254232 0 CFG=1
M  V30 23 H 11.056465 9.918046 -3.267628 0
M  V30 24 H 12.777344 9.990227 -3.626059 0
M  V30 25 H 7.583808 6.919866 -12.611674 0
M  V30 26 H 5.691090 3.724756 -11.406774 0
M  V30 27 H 5.672929 5.352987 -12.033251 0
M  V30 28 H 6.575406 5.427673 -9.724849 0
M  V30 29 H 12.175188 6.089427 -2.515160 0
M  V30 30 H 11.047504 5.406222 -7.017713 0
M  V30 31 H 9.463977 5.990229 -6.488496 0
M  V30 32 H 6.575412 3.067682 -14.739748 0
M  V30 33 H 5.270893 3.983590 -13.985024 0
M  V30 34 H 9.811801 7.884242 -5.185026 0
M  V30 35 H 6.557039 5.033062 -16.123265 0
M  V30 36 H 6.171053 6.070532 -14.749459 0
M  V30 37 H 11.100407 9.845998 -5.644669 0
M  V30 38 H 12.576028 8.960967 -5.697539 0
M  V30 39 H 7.585605 3.095619 -12.705742 0
M  V30 40 H 8.807186 4.694179 -15.341925 0
M  V30 41 H 8.551378 6.390207 -14.986152 0
M  V30 42 H 9.094921 7.025693 -8.675812 0
M  V30 43 H 10.641758 6.435147 -9.259528 0
M  V30 44 H 12.175410 5.990224 -5.079610 0
M  V30 45 H 10.585445 5.801782 -4.385023 0
M  V30 46 H 9.191558 4.122401 -10.993733 0
M  V30 47 H 9.927061 4.069002 -8.783096 0
M  V30 48 H 8.389672 4.644776 -8.191653 0
M  V30 49 H 9.300016 4.469644 -13.152967 0
M  V30 50 H 8.071793 6.797005 -10.278136 0
M  V30 END ATOM
M  V30 BEGIN BOND
M  V30 1 1 5 4
M  V30 2 1 9 1
M  V30 3 1 9 2
M  V30 4 2 9 6
M  V30 5 1 10 3
M  V30 6 1 10 5
M  V30 7 1 12 3
M  V30 8 1 13 8
M  V30 9 1 14 7
M  V30 10 1 14 11
M  V30 11 1 15 1
M  V30 12 1 15 11
M  V30 13 1 16 4
M  V30 14 1 16 8
M  V30 15 1 17 13
M  V30 16 1 18 7
M  V30 17 1 19 6
M  V30 18 1 19 11
M  V30 19 1 20 5
M  V30 20 1 20 10
M  V30 21 1 21 18
M  V30 22 1 21 20
M  V30 23 1 22 3
M  V30 24 1 22 16
M  V30 25 1 22 17
M  V30 26 1 23 1
M  V30 27 1 24 1
M  V30 28 1 3 25 CFG=3
M  V30 29 1 26 4
M  V30 30 1 27 4
M  V30 31 1 5 28 CFG=1
M  V30 32 1 29 6
M  V30 33 1 30 7
M  V30 34 1 31 7
M  V30 35 1 32 8
M  V30 36 1 33 8
M  V30 37 1 11 34 CFG=1
M  V30 38 1 35 13
M  V30 39 1 36 13
M  V30 40 1 37 15
M  V30 41 1 38 15
M  V30 42 1 16 39 CFG=1
M  V30 43 1 40 17
M  V30 44 1 41 17
M  V30 45 1 42 18
M  V30 46 1 43 18
M  V30 47 1 44 19
M  V30 48 1 45 19
M  V30 49 1 20 46 CFG=3
M  V30 50 1 47 21
M  V30 51 1 48 21
M  V30 52 1 22 49 CFG=3
M  V30 53 1 10 50 CFG=1
M  V30 END BOND
M  V30 END CTAB
M  END
>  <i_epik_Tot_Q>  (1) 
0

>  <i_epik_Tot_abs_Q>  (1) 
2

>  <i_i_glide_confnum>  (1) 
32

>  <i_i_glide_lignum>  (1) 
82

>  <i_i_glide_posenum>  (1) 
400

>  <i_i_glide_rotatable_bonds>  (1) 
5

>  <i_lp_mmshare_version>  (1) 
72125

>  <i_m_source_file_index>  (1) 
53

>  <i_f3d_flags>  (1) 
0

>  <num_sample>  (1) 
100

>  <b_lp_Chiralities_Consistent>  (1) 
1

>  <r_epik_Charging_Adjusted_Penalty>  (1) 
0.66076975529779935

>  <r_epik_Ionization_Penalty>  (1) 
0.32551799850713803

>  <r_epik_Ionization_Penalty_Charging>  (1) 
0.32551799850601437

>  <r_epik_Ionization_Penalty_Neutral>  (1) 
1.1236391675704673e-12

>  <r_epik_State_Penalty>  (1) 
0.33525175679178498

>  <r_glide_ring_energy>  (1) 
0

>  <r_i_docking_score>  (1) 
-6.6771292873336678

>  <r_i_glide_ecoul>  (1) 
-4.8758886681851301

>  <r_i_glide_eff_state_penalty>  (1) 
0.33525175679178498

>  <r_i_glide_einternal>  (1) 
2.8433505736642481

>  <r_i_glide_emodel>  (1) 
-46.915692156226527

>  <r_i_glide_emodel_strain>  (1) 
2.5955429263998866

>  <r_i_glide_energy>  (1) 
-34.725191782313267

>  <r_i_glide_erotb>  (1) 
0.58016400484968

>  <r_i_glide_esite>  (1) 
-0.11116256056364793

>  <r_i_glide_evdw>  (1) 
-29.849303114128137

>  <r_i_glide_gscore>  (1) 
-7.012381044125453

>  <r_i_glide_gscore_strain>  (1) 
0

>  <r_i_glide_hbond>  (1) 
-0.18229191087295771

>  <r_i_glide_ligand_efficiency>  (1) 
-0.30350587669698492

>  <r_i_glide_ligand_efficiency_ln>  (1) 
-1.6321339520327993

>  <r_i_glide_ligand_efficiency_sa>  (1) 
-0.85043540358999614

>  <r_i_glide_lipo>  (1) 
-2.6509367307410749

>  <r_i_glide_metal>  (1) 
-0

>  <r_i_glide_rewards>  (1) 
-2.4243053908632755

>  <r_lp_Energy>  (1) 
29.210184999999999

>  <s_epik_Chemistry_Notes>  (1) 
This compound contains an acetal/aminal-like group ( X-CH(R)-Y where X, Y are N, S, or O) that may be acid/base labile, releasing an aldehyde.

>  <s_epik_cmdline>  (1) 
J2VwaWtfcHl0aG9uJywgJy1waHQnLCAnMS4wJywgJy1waCcsICc3LjQnLCAnLXRuJywgJzgnLCAnLW1hJywgJzUwMCcsICctaW1hZScsICc8aW5maWxlLm1hZT4nLCAnLW9tYWUnLCAnPG91dGZpbGUubWFlPic=

>  <s_epik_input>  (1) 
RkMxPVtDSF1bQ0gyXVtDQEBIXShbQ0gyXVtDSDJdMSlPW0NIMl1bQ0gyXVtDSDJdW0NAQEhdMk4oW0NASF0yMylbQ0BASF0oW09IXSlbQ0BIXTRbQ0BASF0oW0NIMl0zKVtDSDJdW0NIMl1bQ0gyXTQ=

>  <s_glide_docking_method>  (1) 
confgen

>  <s_i_glide_gridfile>  (1) 
gpcr_drd2_6luq_protein_autoprepared_prepared

>  <s_lp_Force_Field>  (1) 
S-OPLS

>  <s_lp_Variant>  (1) 
DiffSBDD_52-1

>  <s_m_source_file>  (1) 
generated_generic_title2_ligand_DiffSBDD_2026-06-23_prepared.sdf

>  <GenAI_Model>  (1) 
DiffSBDD

>  <Protein>  (1) 
generic_title2

$$$$
DiffSBDD_34
     RDKit          3D

  0  0  0  0  0  0  0  0  0  0999 V3000
M  V30 BEGIN CTAB
M  V30 COUNTS 48 50 0 0 1
M  V30 BEGIN ATOM
M  V30 1 O 7.284641 4.713277 -14.531935 0
M  V30 2 C 11.375321 7.657959 -5.083308 0
M  V30 3 C 12.177494 7.904407 -2.363094 0
M  V30 4 C 6.873793 4.912865 -13.179924 0 CFG=2
M  V30 5 C 7.391031 7.042235 -14.099674 0
M  V30 6 C 9.812902 6.368997 -8.180259 0
M  V30 7 C 6.450489 6.395519 -13.123868 0
M  V30 8 C 7.515452 5.966329 -15.176462 0
M  V30 9 C 10.481910 7.062987 -9.205024 0
M  V30 10 N 10.093335 6.545942 -6.850065 0
M  V30 11 C 11.711653 10.197367 -5.384001 0
M  V30 12 C 12.165873 9.034467 -3.187911 0
M  V30 13 C 11.753143 8.192079 -7.522082 0
M  V30 14 C 11.046700 7.480684 -6.534755 0
M  V30 15 C 9.435756 4.751523 -12.668497 0
M  V30 16 O 6.579585 4.993272 -10.376109 0
M  V30 17 C 11.472924 7.970134 -8.857489 0
M  V30 18 C 8.728732 5.338591 -8.527194 0
M  V30 19 C 11.762254 8.933468 -4.536656 0
M  V30 20 C 7.728602 4.790198 -10.750779 0
M  V30 21 C 7.999095 4.398566 -12.218516 0 CFG=1
M  V30 22 C 11.774931 6.663259 -2.871545 0
M  V30 23 C 11.372636 6.542415 -4.218218 0
M  V30 24 N 8.805595 4.895455 -9.935814 0
M  V30 25 Cl 12.358622 8.783612 -10.054650 0
M  V30 26 H 12.486962 7.992013 -1.331620 0
M  V30 27 H 5.984986 4.302775 -13.007585 0
M  V30 28 H 8.335278 7.222190 -13.586901 0
M  V30 29 H 7.032754 7.989544 -14.499680 0
M  V30 30 H 5.429748 6.500563 -13.497547 0
M  V30 31 H 6.478173 6.859134 -12.138219 0
M  V30 32 H 8.488994 5.992200 -15.665569 0
M  V30 33 H 6.747900 6.103641 -15.939440 0
M  V30 34 H 10.246035 6.886943 -10.242372 0
M  V30 35 H 12.689337 10.420847 -5.806624 0
M  V30 36 H 10.967887 10.156353 -6.174901 0
M  V30 37 H 11.375663 11.042327 -4.784305 0
M  V30 38 H 12.461182 9.989957 -2.785389 0
M  V30 39 H 12.532534 8.879440 -7.249295 0
M  V30 40 H 10.170663 4.150343 -12.134692 0
M  V30 41 H 9.598545 4.541258 -13.724516 0
M  V30 42 H 9.679303 5.797705 -12.496557 0
M  V30 43 H 8.840556 4.465251 -7.885807 0
M  V30 44 H 7.772352 5.793490 -8.294310 0
M  V30 45 H 7.934511 3.309582 -12.260476 0
M  V30 46 H 11.778075 5.792237 -2.232469 0
M  V30 47 H 11.083163 5.587245 -4.597259 0
M  V30 48 H 9.721249 4.703565 -10.313823 0
M  V30 END ATOM
M  V30 BEGIN BOND
M  V30 1 1 4 1
M  V30 2 1 7 4
M  V30 3 1 7 5
M  V30 4 1 8 1
M  V30 5 1 8 5
M  V30 6 1 9 6
M  V30 7 2 10 6
M  V30 8 1 12 3
M  V30 9 1 14 2
M  V30 10 1 14 10
M  V30 11 2 14 13
M  V30 12 2 17 9
M  V30 13 1 17 13
M  V30 14 1 18 6
M  V30 15 1 19 2
M  V30 16 1 19 11
M  V30 17 2 19 12
M  V30 18 2 20 16
M  V30 19 1 21 4
M  V30 20 1 21 15
M  V30 21 1 21 20
M  V30 22 2 22 3
M  V30 23 2 23 2
M  V30 24 1 23 22
M  V30 25 1 24 18
M  V30 26 1 24 20
M  V30 27 1 25 17
M  V30 28 1 26 3
M  V30 29 1 4 27 CFG=1
M  V30 30 1 28 5
M  V30 31 1 29 5
M  V30 32 1 30 7
M  V30 33 1 31 7
M  V30 34 1 32 8
M  V30 35 1 33 8
M  V30 36 1 34 9
M  V30 37 1 35 11
M  V30 38 1 36 11
M  V30 39 1 37 11
M  V30 40 1 38 12
M  V30 41 1 39 13
M  V30 42 1 40 15
M  V30 43 1 41 15
M  V30 44 1 42 15
M  V30 45 1 43 18
M  V30 46 1 44 18
M  V30 47 1 21 45 CFG=1
M  V30 48 1 46 22
M  V30 49 1 47 23
M  V30 50 1 48 24
M  V30 END BOND
M  V30 END CTAB
M  END
>  <i_epik_Tot_Q>  (1) 
0

>  <i_epik_Tot_abs_Q>  (1) 
0

>  <i_i_glide_confnum>  (1) 
93

>  <i_i_glide_lignum>  (1) 
58

>  <i_i_glide_posenum>  (1) 
123

>  <i_i_glide_rotatable_bonds>  (1) 
6

>  <i_lp_mmshare_version>  (1) 
72125

>  <i_m_source_file_index>  (1) 
35

>  <i_f3d_flags>  (1) 
0

>  <num_sample>  (1) 
100

>  <b_lp_Chiralities_Consistent>  (1) 
1

>  <r_epik_Charging_Adjusted_Penalty>  (1) 
0

>  <r_epik_Ionization_Penalty>  (1) 
0.00017143064018834461

>  <r_epik_Ionization_Penalty_Charging>  (1) 
0

>  <r_epik_Ionization_Penalty_Neutral>  (1) 
0.00017143064018834461

>  <r_epik_State_Penalty>  (1) 
-0

>  <r_glide_ring_energy>  (1) 
1.236193072622225

>  <r_i_docking_score>  (1) 
-6.6594591385968833

>  <r_i_glide_ecoul>  (1) 
0.44143913179893535

>  <r_i_glide_eff_state_penalty>  (1) 
-0

>  <r_i_glide_einternal>  (1) 
6.8404186694693703

>  <r_i_glide_emodel>  (1) 
-47.236706131812035

>  <r_i_glide_emodel_strain>  (1) 
1.6362703138929717

>  <r_i_glide_energy>  (1) 
-39.885846125584344

>  <r_i_glide_erotb>  (1) 
0.74388536090720081

>  <r_i_glide_esite>  (1) 
-0.04646545266468341

>  <r_i_glide_evdw>  (1) 
-40.327285257383281

>  <r_i_glide_gscore>  (1) 
-6.6594591385968833

>  <r_i_glide_gscore_strain>  (1) 
0

>  <r_i_glide_hbond>  (1) 
0

>  <r_i_glide_ligand_efficiency>  (1) 
-0.26637836554387534

>  <r_i_glide_ligand_efficiency_ln>  (1) 
-1.5784913837337051

>  <r_i_glide_ligand_efficiency_sa>  (1) 
-0.77889506592644242

>  <r_i_glide_lipo>  (1) 
-3.544562839158516

>  <r_i_glide_metal>  (1) 
-0

>  <r_i_glide_rewards>  (1) 
-1.8621678145815601

>  <r_lp_Energy>  (1) 
20.281278999999998

>  <r_lp_tautomer_probability>  (1) 
1

>  <s_epik_cmdline>  (1) 
J2VwaWtfcHl0aG9uJywgJy1waHQnLCAnMS4wJywgJy1waCcsICc3LjQnLCAnLXRuJywgJzgnLCAnLW1hJywgJzUwMCcsICctaW1hZScsICc8aW5maWxlLm1hZT4nLCAnLW9tYWUnLCAnPG91dGZpbGUubWFlPic=

>  <s_epik_input>  (1) 
W0NIMl0xW0NIMl1bQ0gyXU9bQ0BIXTFbQ0BIXShbQ0gzXSlDKD1PKVtOSF1bQ0gyXWMyW2NIXWMoQ2wpW2NIXWMobjIpLWMzYyhbQ0gzXSlbY0hdW2NIXVtjSF1bY0hdMw==

>  <s_glide_docking_method>  (1) 
confgen

>  <s_i_glide_gridfile>  (1) 
gpcr_drd2_6luq_protein_autoprepared_prepared

>  <s_lp_Force_Field>  (1) 
S-OPLS

>  <s_lp_Variant>  (1) 
DiffSBDD_34-2

>  <s_m_source_file>  (1) 
generated_generic_title2_ligand_DiffSBDD_2026-06-23_prepared.sdf

>  <GenAI_Model>  (1) 
DiffSBDD

>  <Protein>  (1) 
generic_title2

$$$$
DiffSBDD_79
     RDKit          3D

  0  0  0  0  0  0  0  0  0  0999 V3000
M  V30 BEGIN CTAB
M  V30 COUNTS 53 56 0 0 1
M  V30 BEGIN ATOM
M  V30 1 C 12.435884 8.583118 -3.896778 0
M  V30 2 C 7.992997 5.330614 -11.475014 0 CFG=2
M  V30 3 C 12.288507 7.853953 -1.585471 0
M  V30 4 C 10.936449 7.873229 -8.617701 0
M  V30 5 C 8.975583 6.448497 -11.156258 0
M  V30 6 C 11.980695 7.105542 -3.840200 0
M  V30 7 C 12.354039 6.605024 -2.451462 0
M  V30 8 N 9.741921 6.390265 -10.138538 0
M  V30 9 C 10.120687 8.192000 -6.342723 0
M  V30 10 C 10.789003 7.280546 -9.985298 0
M  V30 11 C 5.686178 4.881210 -12.546271 0
M  V30 12 C 8.257691 4.314989 -12.550424 0
M  V30 13 C 12.230428 9.187485 -7.028752 0
M  V30 14 C 7.662659 7.757897 -12.939911 0
M  V30 15 C 11.267449 8.955996 -6.045603 0
M  V30 16 C 12.069189 8.655622 -8.314575 0
M  V30 17 C 7.332323 6.479567 -13.715971 0 CFG=1
M  V30 18 C 11.486487 9.503607 -4.665163 0
M  V30 19 C 8.955002 7.635622 -12.128808 0
M  V30 20 C 7.131465 5.322495 -12.727875 0 CFG=2
M  V30 21 C 12.677686 9.024508 -2.462562 0
M  V30 22 C 9.955152 7.646360 -7.624298 0
M  V30 23 O 11.594074 7.590236 -10.864777 0
M  V30 24 C 6.188124 6.717877 -14.715780 0
M  V30 25 H 13.403681 8.643452 -4.384725 0
M  V30 26 H 7.535631 4.971767 -10.554207 0
M  V30 27 H 13.008171 7.793303 -0.785015 0
M  V30 28 H 11.284037 7.990362 -1.185119 0
M  V30 29 H 10.909947 7.021596 -3.981839 0
M  V30 30 H 12.388304 6.484824 -4.632568 0
M  V30 31 H 13.368766 6.208322 -2.439666 0
M  V30 32 H 11.690422 5.815492 -2.097800 0
M  V30 33 H 9.376186 8.011019 -5.585014 0
M  V30 34 H 5.077237 5.723519 -12.218680 0
M  V30 35 H 5.276675 4.470721 -13.469644 0
M  V30 36 H 5.618985 4.106136 -11.782062 0
M  V30 37 H 7.982362 3.281193 -12.350788 0
M  V30 38 H 9.160111 4.440848 -13.146990 0
M  V30 39 H 13.111017 9.763155 -6.785023 0
M  V30 40 H 6.836876 7.999948 -12.267999 0
M  V30 41 H 7.775400 8.596907 -13.624304 0
M  V30 42 H 12.825264 8.833208 -9.066297 0
M  V30 43 H 8.205544 6.236138 -14.320669 0
M  V30 44 H 11.925845 10.489694 -4.784388 0
M  V30 45 H 10.575419 9.653975 -4.113523 0
M  V30 46 H 9.065511 8.568971 -11.575081 0
M  V30 47 H 9.816959 7.550970 -12.784981 0
M  V30 48 H 13.746184 9.190236 -2.336112 0
M  V30 49 H 12.156141 9.941588 -2.184812 0
M  V30 50 H 9.078360 7.053115 -7.843536 0
M  V30 51 H 5.280316 7.044988 -14.210761 0
M  V30 52 H 6.456578 7.500099 -15.427102 0
M  V30 53 H 5.962127 5.819148 -15.290333 0
M  V30 END ATOM
M  V30 BEGIN BOND
M  V30 1 1 5 2
M  V30 2 1 6 1
M  V30 3 1 7 3
M  V30 4 1 7 6
M  V30 5 2 8 5
M  V30 6 1 10 4
M  V30 7 1 10 8
M  V30 8 1 12 2
M  V30 9 1 15 9
M  V30 10 2 15 13
M  V30 11 2 16 4
M  V30 12 1 16 13
M  V30 13 1 17 14
M  V30 14 1 18 1
M  V30 15 1 18 15
M  V30 16 1 19 5
M  V30 17 1 19 14
M  V30 18 1 20 2
M  V30 19 1 20 11 CFG=1
M  V30 20 1 20 12
M  V30 21 1 20 17
M  V30 22 1 21 1
M  V30 23 1 21 3
M  V30 24 1 22 4
M  V30 25 2 22 9
M  V30 26 2 23 10
M  V30 27 1 24 17
M  V30 28 1 25 1
M  V30 29 1 2 26 CFG=1
M  V30 30 1 27 3
M  V30 31 1 28 3
M  V30 32 1 29 6
M  V30 33 1 30 6
M  V30 34 1 31 7
M  V30 35 1 32 7
M  V30 36 1 33 9
M  V30 37 1 34 11
M  V30 38 1 35 11
M  V30 39 1 36 11
M  V30 40 1 37 12
M  V30 41 1 38 12
M  V30 42 1 39 13
M  V30 43 1 40 14
M  V30 44 1 41 14
M  V30 45 1 42 16
M  V30 46 1 17 43 CFG=3
M  V30 47 1 44 18
M  V30 48 1 45 18
M  V30 49 1 46 19
M  V30 50 1 47 19
M  V30 51 1 48 21
M  V30 52 1 49 21
M  V30 53 1 50 22
M  V30 54 1 51 24
M  V30 55 1 52 24
M  V30 56 1 53 24
M  V30 END BOND
M  V30 END CTAB
M  END
>  <i_epik_Tot_Q>  (1) 
0

>  <i_epik_Tot_abs_Q>  (1) 
0

>  <i_i_glide_confnum>  (1) 
7

>  <i_i_glide_lignum>  (1) 
137

>  <i_i_glide_posenum>  (1) 
56

>  <i_i_glide_rotatable_bonds>  (1) 
4

>  <i_lp_mmshare_version>  (1) 
72125

>  <i_m_source_file_index>  (1) 
80

>  <i_f3d_flags>  (1) 
0

>  <num_sample>  (1) 
100

>  <b_lp_Chiralities_Consistent>  (1) 
1

>  <r_epik_Charging_Adjusted_Penalty>  (1) 
0

>  <r_epik_Ionization_Penalty>  (1) 
0

>  <r_epik_Ionization_Penalty_Charging>  (1) 
0

>  <r_epik_Ionization_Penalty_Neutral>  (1) 
0

>  <r_epik_State_Penalty>  (1) 
-0

>  <r_glide_ring_energy>  (1) 
0.22242768926462378

>  <r_i_docking_score>  (1) 
-6.6482289003427217

>  <r_i_glide_ecoul>  (1) 
-0.84040100029652431

>  <r_i_glide_eff_state_penalty>  (1) 
-0

>  <r_i_glide_einternal>  (1) 
4.4266276796141319

>  <r_i_glide_emodel>  (1) 
-41.361389902861447

>  <r_i_glide_emodel_strain>  (1) 
0.15678498136664132

>  <r_i_glide_energy>  (1) 
-33.272407228543067

>  <r_i_glide_erotb>  (1) 
0.71538486133248902

>  <r_i_glide_esite>  (1) 
-0.067562029488169459

>  <r_i_glide_evdw>  (1) 
-32.432006228246543

>  <r_i_glide_gscore>  (1) 
-6.6482289003427217

>  <r_i_glide_gscore_strain>  (1) 
0

>  <r_i_glide_hbond>  (1) 
0

>  <r_i_glide_ligand_efficiency>  (1) 
-0.27700953751428009

>  <r_i_glide_ligand_efficiency_ln>  (1) 
-1.5912262431977957

>  <r_i_glide_ligand_efficiency_sa>  (1) 
-0.79903377290204869

>  <r_i_glide_lipo>  (1) 
-3.4448630661847801

>  <r_i_glide_metal>  (1) 
-0

>  <r_i_glide_rewards>  (1) 
-2.103528204545456

>  <r_lp_Energy>  (1) 
53.127567999999997

>  <r_lp_tautomer_probability>  (1) 
1

>  <s_epik_Chemistry_Notes>  (1) 
This compound has an imine and may undergo hydrolysis.

>  <s_epik_cmdline>  (1) 
J2VwaWtfcHl0aG9uJywgJy1waHQnLCAnMS4wJywgJy1waCcsICc3LjQnLCAnLXRuJywgJzgnLCAnLW1hJywgJzUwMCcsICctaW1hZScsICc8aW5maWxlLm1hZT4nLCAnLW9tYWUnLCAnPG91dGZpbGUubWFlPic=

>  <s_epik_input>  (1) 
W0NIMl0xW0NIMl1bQ0gyXVtDSDJdW0NIXTFbQ0gyXWMoW2NIXVtjSF0yKVtjSF1bY0hdYzJDKD1PKVxOPUMoXFtDQEhdKFtDSDJdMylDMzRbQ0gzXSlbQ0gyXVtDSDJdW0NAQEhdNFtDSDNd

>  <s_glide_docking_method>  (1) 
confgen

>  <s_i_glide_gridfile>  (1) 
gpcr_drd2_6luq_protein_autoprepared_prepared

>  <s_lp_Force_Field>  (1) 
S-OPLS

>  <s_lp_Variant>  (1) 
DiffSBDD_79-1

>  <s_m_source_file>  (1) 
generated_generic_title2_ligand_DiffSBDD_2026-06-23_prepared.sdf

>  <GenAI_Model>  (1) 
DiffSBDD

>  <Protein>  (1) 
generic_title2

$$$$
DiffSBDD_34
     RDKit          3D

  0  0  0  0  0  0  0  0  0  0999 V3000
M  V30 BEGIN CTAB
M  V30 COUNTS 48 50 0 0 1
M  V30 BEGIN ATOM
M  V30 1 O 8.307514 6.355097 -13.138002 0
M  V30 2 C 11.375412 7.660497 -5.214024 0
M  V30 3 C 12.175437 7.913379 -2.495949 0
M  V30 4 C 7.540881 5.161555 -13.292180 0 CFG=2
M  V30 5 C 6.199603 7.096285 -13.728294 0
M  V30 6 C 9.774995 6.379563 -8.264976 0
M  V30 7 C 6.083343 5.603106 -13.515291 0
M  V30 8 C 7.429172 7.445779 -12.900796 0
M  V30 9 C 10.500800 6.968552 -9.316126 0
M  V30 10 N 10.054365 6.596299 -6.950369 0
M  V30 11 C 11.759642 10.181604 -5.548568 0
M  V30 12 C 12.175439 9.038728 -3.329638 0
M  V30 13 C 11.828044 8.095971 -7.666479 0
M  V30 14 C 11.057994 7.470373 -6.659238 0
M  V30 15 C 9.151978 3.455473 -12.296236 0
M  V30 16 O 6.479466 5.179333 -10.385122 0
M  V30 17 C 11.553933 7.820615 -9.003348 0
M  V30 18 C 8.624024 5.429179 -8.563581 0
M  V30 19 C 11.775433 8.930741 -4.681509 0
M  V30 20 C 7.591643 4.790236 -10.723289 0
M  V30 21 C 7.802957 4.175619 -12.124707 0 CFG=1
M  V30 22 C 11.761493 6.673811 -2.995583 0
M  V30 23 C 11.355049 6.549542 -4.340417 0
M  V30 24 N 8.669565 4.861597 -9.919074 0
M  V30 25 Cl 12.528333 8.490356 -10.241870 0
M  V30 26 H 12.485916 8.005021 -1.466196 0
M  V30 27 H 7.887229 4.698313 -14.217143 0
M  V30 28 H 5.303362 7.624376 -13.407538 0
M  V30 29 H 6.382377 7.317267 -14.780859 0
M  V30 30 H 5.623681 5.106088 -14.369910 0
M  V30 31 H 5.454806 5.404194 -12.648792 0
M  V30 32 H 7.180549 7.495169 -11.840310 0
M  V30 33 H 7.882144 8.393579 -13.185575 0
M  V30 34 H 10.259705 6.753343 -10.346255 0
M  V30 35 H 12.745535 10.390339 -5.963386 0
M  V30 36 H 11.021430 10.134501 -6.347867 0
M  V30 37 H 11.443398 11.029732 -4.943681 0
M  V30 38 H 12.482102 9.990241 -2.933534 0
M  V30 39 H 12.649955 8.742008 -7.409171 0
M  V30 40 H 9.375408 2.790448 -11.463581 0
M  V30 41 H 9.116596 2.829438 -13.185019 0
M  V30 42 H 9.977952 4.159081 -12.406562 0
M  V30 43 H 8.633350 4.607997 -7.847879 0
M  V30 44 H 7.714820 5.990227 -8.385109 0
M  V30 45 H 7.043788 3.396625 -12.203417 0
M  V30 46 H 11.754767 5.807630 -2.349641 0
M  V30 47 H 11.055633 5.590208 -4.716754 0
M  V30 48 H 9.556081 4.519449 -10.256699 0
M  V30 END ATOM
M  V30 BEGIN BOND
M  V30 1 1 4 1
M  V30 2 1 7 4
M  V30 3 1 7 5
M  V30 4 1 8 1
M  V30 5 1 8 5
M  V30 6 1 9 6
M  V30 7 2 10 6
M  V30 8 1 12 3
M  V30 9 1 14 2
M  V30 10 1 14 10
M  V30 11 2 14 13
M  V30 12 2 17 9
M  V30 13 1 17 13
M  V30 14 1 18 6
M  V30 15 1 19 2
M  V30 16 1 19 11
M  V30 17 2 19 12
M  V30 18 2 20 16
M  V30 19 1 21 4
M  V30 20 1 21 15
M  V30 21 1 21 20
M  V30 22 2 22 3
M  V30 23 2 23 2
M  V30 24 1 23 22
M  V30 25 1 24 18
M  V30 26 1 24 20
M  V30 27 1 25 17
M  V30 28 1 26 3
M  V30 29 1 4 27 CFG=3
M  V30 30 1 28 5
M  V30 31 1 29 5
M  V30 32 1 30 7
M  V30 33 1 31 7
M  V30 34 1 32 8
M  V30 35 1 33 8
M  V30 36 1 34 9
M  V30 37 1 35 11
M  V30 38 1 36 11
M  V30 39 1 37 11
M  V30 40 1 38 12
M  V30 41 1 39 13
M  V30 42 1 40 15
M  V30 43 1 41 15
M  V30 44 1 42 15
M  V30 45 1 43 18
M  V30 46 1 44 18
M  V30 47 1 21 45 CFG=3
M  V30 48 1 46 22
M  V30 49 1 47 23
M  V30 50 1 48 24
M  V30 END BOND
M  V30 END CTAB
M  END
>  <i_epik_Tot_Q>  (1) 
0

>  <i_epik_Tot_abs_Q>  (1) 
0

>  <i_i_glide_confnum>  (1) 
93

>  <i_i_glide_lignum>  (1) 
58

>  <i_i_glide_posenum>  (1) 
72

>  <i_i_glide_rotatable_bonds>  (1) 
6

>  <i_lp_mmshare_version>  (1) 
72125

>  <i_m_source_file_index>  (1) 
35

>  <i_f3d_flags>  (1) 
0

>  <num_sample>  (1) 
100

>  <b_lp_Chiralities_Consistent>  (1) 
1

>  <r_epik_Charging_Adjusted_Penalty>  (1) 
0

>  <r_epik_Ionization_Penalty>  (1) 
0.00017143064018834461

>  <r_epik_Ionization_Penalty_Charging>  (1) 
0

>  <r_epik_Ionization_Penalty_Neutral>  (1) 
0.00017143064018834461

>  <r_epik_State_Penalty>  (1) 
-0

>  <r_glide_ring_energy>  (1) 
1.236193072622225

>  <r_i_docking_score>  (1) 
-6.6397405532044198

>  <r_i_glide_ecoul>  (1) 
0.12506572128806903

>  <r_i_glide_eff_state_penalty>  (1) 
-0

>  <r_i_glide_einternal>  (1) 
14.307841567719612

>  <r_i_glide_emodel>  (1) 
-44.252075774983254

>  <r_i_glide_emodel_strain>  (1) 
0.64233778408270581

>  <r_i_glide_energy>  (1) 
-39.677732684563189

>  <r_i_glide_erotb>  (1) 
0.74388536090720081

>  <r_i_glide_esite>  (1) 
-0.061815727839844931

>  <r_i_glide_evdw>  (1) 
-39.802798405851256

>  <r_i_glide_gscore>  (1) 
-6.6397405532044198

>  <r_i_glide_gscore_strain>  (1) 
0

>  <r_i_glide_hbond>  (1) 
0

>  <r_i_glide_ligand_efficiency>  (1) 
-0.26558962212817677

>  <r_i_glide_ligand_efficiency_ln>  (1) 
-1.5738174880773712

>  <r_i_glide_ligand_efficiency_sa>  (1) 
-0.77658876618804129

>  <r_i_glide_lipo>  (1) 
-3.48819065744852

>  <r_i_glide_metal>  (1) 
-0

>  <r_i_glide_rewards>  (1) 
-1.8622394667239026

>  <r_lp_Energy>  (1) 
20.281278999999998

>  <r_lp_tautomer_probability>  (1) 
1

>  <s_epik_cmdline>  (1) 
J2VwaWtfcHl0aG9uJywgJy1waHQnLCAnMS4wJywgJy1waCcsICc3LjQnLCAnLXRuJywgJzgnLCAnLW1hJywgJzUwMCcsICctaW1hZScsICc8aW5maWxlLm1hZT4nLCAnLW9tYWUnLCAnPG91dGZpbGUubWFlPic=

>  <s_epik_input>  (1) 
W0NIMl0xW0NIMl1bQ0gyXU9bQ0BIXTFbQ0BIXShbQ0gzXSlDKD1PKVtOSF1bQ0gyXWMyW2NIXWMoQ2wpW2NIXWMobjIpLWMzYyhbQ0gzXSlbY0hdW2NIXVtjSF1bY0hdMw==

>  <s_glide_docking_method>  (1) 
confgen

>  <s_i_glide_gridfile>  (1) 
gpcr_drd2_6luq_protein_autoprepared_prepared

>  <s_lp_Force_Field>  (1) 
S-OPLS

>  <s_lp_Variant>  (1) 
DiffSBDD_34-2

>  <s_m_source_file>  (1) 
generated_generic_title2_ligand_DiffSBDD_2026-06-23_prepared.sdf

>  <GenAI_Model>  (1) 
DiffSBDD

>  <Protein>  (1) 
generic_title2

$$$$
DiffSBDD_76
     RDKit          3D

  0  0  0  0  0  0  0  0  0  0999 V3000
M  V30 BEGIN CTAB
M  V30 COUNTS 54 57 0 0 1
M  V30 BEGIN ATOM
M  V30 1 N 6.895918 6.265087 -11.585023 0 CHG=1
M  V30 2 N 10.977944 8.047038 -5.282604 0
M  V30 3 C 5.906795 4.597488 -13.267525 0 CFG=2
M  V30 4 C 10.399586 6.786492 -5.696475 0
M  V30 5 F 10.139638 8.300011 -11.185039 0
M  V30 6 C 11.775417 8.336346 -4.275506 0
M  V30 7 C 6.774211 4.396455 -14.526220 0
M  V30 8 C 5.895023 6.029969 -12.638210 0
M  V30 9 C 9.541030 5.191816 -8.485148 0
M  V30 10 C 8.318361 6.247594 -11.945894 0
M  V30 11 C 8.350059 4.051038 -16.852314 0
M  V30 12 N 10.742313 9.166281 -5.984649 0
M  V30 13 C 8.172894 2.976643 -15.965787 0
M  V30 14 C 7.741285 5.288882 -16.591454 0
M  V30 15 C 7.190780 1.955867 -13.899539 0
M  V30 16 N 12.175327 7.330822 -3.408489 0
M  V30 17 C 6.175431 2.123468 -12.779087 0
M  V30 18 C 6.959700 5.467061 -15.434623 0
M  V30 19 C 10.438510 6.233117 -8.173860 0
M  V30 20 C 6.173646 3.526872 -12.195971 0
M  V30 21 O 7.785875 0.888232 -14.034581 0
M  V30 22 C 10.638527 7.285498 -9.087593 0
M  V30 23 N 12.136213 9.590197 -4.182458 0
M  V30 24 C 11.198520 6.210696 -6.868474 0
M  V30 25 C 8.865225 5.190851 -9.712529 0
M  V30 26 C 9.952472 7.289688 -10.314324 0
M  V30 27 C 9.069829 6.239637 -10.632856 0
M  V30 28 C 11.459765 10.072281 -5.291301 0
M  V30 29 C 7.381816 3.131895 -14.805769 0
M  V30 30 H 6.775021 5.533992 -10.900109 0
M  V30 31 H 4.890796 4.427542 -13.625437 0
M  V30 32 H 10.395931 6.091167 -4.856736 0
M  V30 33 H 9.354715 6.948695 -5.966107 0
M  V30 34 H 4.975361 6.130479 -12.075543 0
M  V30 35 H 5.876113 6.852904 -13.347587 0
M  V30 36 H 9.374912 4.390406 -7.785606 0
M  V30 37 H 8.557413 7.118989 -12.557057 0
M  V30 38 H 8.583392 5.358773 -12.517722 0
M  V30 39 H 8.950598 3.922741 -17.740494 0
M  V30 40 H 8.635862 2.024437 -16.179423 0
M  V30 41 H 7.873377 6.106549 -17.282429 0
M  V30 42 H 12.777796 7.524554 -2.622720 0
M  V30 43 H 11.859659 6.378625 -3.521167 0
M  V30 44 H 5.194771 1.880018 -13.185025 0
M  V30 45 H 6.382032 1.389514 -12.000494 0
M  V30 46 H 6.497883 6.422597 -15.252695 0
M  V30 47 H 7.150142 3.671945 -11.742594 0
M  V30 48 H 5.442415 3.600855 -11.390411 0
M  V30 49 H 11.320235 8.088621 -8.848340 0
M  V30 50 H 12.137860 6.749604 -7.003667 0
M  V30 51 H 11.503247 5.190245 -6.659079 0
M  V30 52 H 8.183338 4.390373 -9.945443 0
M  V30 53 H 11.502604 11.108232 -5.592440 0
M  V30 54 H 6.720556 7.128296 -11.067384 0
M  V30 END ATOM
M  V30 BEGIN BOND
M  V30 1 1 4 2
M  V30 2 1 6 2
M  V30 3 1 7 3
M  V30 4 1 8 1
M  V30 5 1 8 3
M  V30 6 1 10 1
M  V30 7 1 12 2
M  V30 8 1 13 11
M  V30 9 2 14 11
M  V30 10 1 16 6
M  V30 11 1 17 15
M  V30 12 2 18 7
M  V30 13 1 18 14
M  V30 14 1 19 9
M  V30 15 1 20 3
M  V30 16 1 20 17
M  V30 17 2 21 15
M  V30 18 2 22 19
M  V30 19 2 23 6
M  V30 20 1 24 4
M  V30 21 1 24 19
M  V30 22 2 25 9
M  V30 23 1 26 5
M  V30 24 1 26 22
M  V30 25 1 27 10
M  V30 26 1 27 25
M  V30 27 2 27 26
M  V30 28 2 28 12
M  V30 29 1 28 23
M  V30 30 1 29 7
M  V30 31 2 29 13
M  V30 32 1 29 15
M  V30 33 1 30 1
M  V30 34 1 3 31 CFG=3
M  V30 35 1 32 4
M  V30 36 1 33 4
M  V30 37 1 34 8
M  V30 38 1 35 8
M  V30 39 1 36 9
M  V30 40 1 37 10
M  V30 41 1 38 10
M  V30 42 1 39 11
M  V30 43 1 40 13
M  V30 44 1 41 14
M  V30 45 1 42 16
M  V30 46 1 43 16
M  V30 47 1 44 17
M  V30 48 1 45 17
M  V30 49 1 46 18
M  V30 50 1 47 20
M  V30 51 1 48 20
M  V30 52 1 49 22
M  V30 53 1 50 24
M  V30 54 1 51 24
M  V30 55 1 52 25
M  V30 56 1 53 28
M  V30 57 1 54 1
M  V30 END BOND
M  V30 END CTAB
M  END
>  <i_epik_Tot_Q>  (1) 
1

>  <i_epik_Tot_abs_Q>  (1) 
1

>  <i_i_glide_confnum>  (1) 
80

>  <i_i_glide_lignum>  (1) 
124

>  <i_i_glide_posenum>  (1) 
31

>  <i_i_glide_rotatable_bonds>  (1) 
7

>  <i_lp_mmshare_version>  (1) 
72125

>  <i_m_source_file_index>  (1) 
77

>  <i_f3d_flags>  (1) 
0

>  <num_sample>  (1) 
100

>  <b_lp_Chiralities_Consistent>  (1) 
1

>  <r_epik_Charging_Adjusted_Penalty>  (1) 
0.13114515656656739

>  <r_epik_Ionization_Penalty>  (1) 
0.066343571056588849

>  <r_epik_Ionization_Penalty_Charging>  (1) 
0.065572578283283764

>  <r_epik_Ionization_Penalty_Neutral>  (1) 
0.00077099277330508725

>  <r_epik_State_Penalty>  (1) 
0.065572578283283625

>  <r_glide_ring_energy>  (1) 
0

>  <r_i_docking_score>  (1) 
-6.6384280494063717

>  <r_i_glide_ecoul>  (1) 
-5.1613919444488188

>  <r_i_glide_eff_state_penalty>  (1) 
0.065572578283283625

>  <r_i_glide_einternal>  (1) 
10.020467874568155

>  <r_i_glide_emodel>  (1) 
-58.206359883211995

>  <r_i_glide_emodel_strain>  (1) 
0.36800763099380163

>  <r_i_glide_energy>  (1) 
-42.762563439193926

>  <r_i_glide_erotb>  (1) 
0.75361898126616078

>  <r_i_glide_esite>  (1) 
-0.12172520995594548

>  <r_i_glide_evdw>  (1) 
-37.60117149474511

>  <r_i_glide_gscore>  (1) 
-6.7040006276896555

>  <r_i_glide_gscore_strain>  (1) 
0

>  <r_i_glide_hbond>  (1) 
-0.16912504867117889

>  <r_i_glide_ligand_efficiency>  (1) 
-0.22891131204849557

>  <r_i_glide_ligand_efficiency_ln>  (1) 
-1.5200316873031545

>  <r_i_glide_ligand_efficiency_sa>  (1) 
-0.70328807559641648

>  <r_i_glide_lipo>  (1) 
-1.6094671997067709

>  <r_i_glide_metal>  (1) 
-0

>  <r_i_glide_rewards>  (1) 
-2.9030347842173421

>  <r_lp_Energy>  (1) 
27.364193

>  <r_lp_tautomer_probability>  (1) 
0.99994999147066566

>  <s_epik_cmdline>  (1) 
J2VwaWtfcHl0aG9uJywgJy1waHQnLCAnMS4wJywgJy1waCcsICc3LjQnLCAnLXRuJywgJzgnLCAnLW1hJywgJzUwMCcsICctaW1hZScsICc8aW5maWxlLm1hZT4nLCAnLW9tYWUnLCAnPG91dGZpbGUubWFlPic=

>  <s_epik_input>  (1) 
W2NIXTFbY0hdW2NIXVtjSF1jKGMxMilDKD1PKVtDSDJdW0NIMl1bQ0BIXTJbQ0gyXVtOSF1bQ0gyXWMoYyhGKVtjSF0zKVtjSF1bY0hdYzNbQ0gyXVtDSDJdbjRjKFtOSDJdKW5bY0hdbjQ=

>  <s_glide_docking_method>  (1) 
confgen

>  <s_i_glide_gridfile>  (1) 
gpcr_drd2_6luq_protein_autoprepared_prepared

>  <s_lp_Force_Field>  (1) 
S-OPLS

>  <s_lp_Variant>  (1) 
DiffSBDD_76-1

>  <s_m_source_file>  (1) 
generated_generic_title2_ligand_DiffSBDD_2026-06-23_prepared.sdf

>  <GenAI_Model>  (1) 
DiffSBDD

>  <Protein>  (1) 
generic_title2

$$$$
DiffSBDD_93
     RDKit          3D

  0  0  0  0  0  0  0  0  0  0999 V3000
M  V30 BEGIN CTAB
M  V30 COUNTS 69 73 0 0 1
M  V30 BEGIN ATOM
M  V30 1 C 7.435257 5.196203 -14.096140 0 CFG=1
M  V30 2 C 10.935474 8.746849 -6.467847 0
M  V30 3 C 10.050550 5.473709 -18.219631 0
M  V30 4 O 12.354355 7.091985 -2.301613 0
M  V30 5 C 9.791376 5.640289 -13.198514 0
M  V30 6 C 10.458785 6.522961 -12.163587 0
M  V30 7 C 10.975445 6.450506 -4.833805 0
M  V30 8 C 5.312436 5.318301 -12.476519 0
M  V30 9 N 8.332996 5.685041 -13.022777 0 CFG=2 CHG=1
M  V30 10 C 10.367640 6.391061 -6.113151 0
M  V30 11 C 11.503054 8.751600 -5.193233 0
M  V30 12 C 7.390174 4.923518 -17.474089 0
M  V30 13 C 8.095774 4.177447 -15.122174 0 CFG=1
M  V30 14 C 12.175417 7.910562 -3.199739 0
M  V30 15 C 9.777580 4.986156 -16.926375 0
M  V30 16 C 5.375427 6.811209 -12.062915 0
M  V30 17 O 7.244649 3.057506 -15.253977 0
M  V30 18 C 6.594863 4.633444 -12.915011 0 CFG=2
M  V30 19 C 10.353236 7.552640 -6.945602 0
M  V30 20 C 11.529508 7.660404 -4.432450 0
M  V30 21 C 9.004175 5.684013 -19.134764 0
M  V30 22 N 12.538996 9.200537 -3.228426 0
M  V30 23 C 12.150130 9.964274 -4.524983 0
M  V30 24 C 9.032856 6.336386 -8.626906 0
M  V30 25 N 9.775444 7.532246 -8.227113 0
M  V30 26 C 7.833086 4.730090 -12.038301 0 CFG=2
M  V30 27 C 8.836510 6.303034 -10.158024 0 CFG=2
M  V30 28 C 8.433241 4.708742 -16.540925 0
M  V30 29 C 7.776271 5.244315 -10.572460 0
M  V30 30 O 10.811888 4.790246 -16.060828 0
M  V30 31 C 6.859961 6.420229 -14.827260 0
M  V30 32 C 10.175356 5.992088 -10.760268 0
M  V30 33 C 7.677347 5.408599 -18.763299 0
M  V30 34 H 10.943439 9.628763 -7.072500 0
M  V30 35 H 11.069231 5.685837 -18.510125 0
M  V30 36 H 10.052358 5.990227 -14.179851 0
M  V30 37 H 10.175424 4.625172 -13.114152 0
M  V30 38 H 11.534662 6.502621 -12.343663 0
M  V30 39 H 10.151482 7.564929 -12.264716 0
M  V30 40 H 11.001339 5.590259 -4.189281 0
M  V30 41 H 4.914459 4.761686 -11.628184 0
M  V30 42 H 4.588588 5.192747 -13.284170 0
M  V30 43 H 9.923345 5.482190 -6.446931 0
M  V30 44 H 6.369682 4.722979 -17.196027 0
M  V30 45 H 8.975364 3.727574 -14.689589 0
M  V30 46 H 4.763601 6.987979 -11.177626 0
M  V30 47 H 4.975428 7.458873 -12.840994 0
M  V30 48 H 6.373220 7.173702 -11.825948 0
M  V30 49 H 7.133332 2.643405 -14.411842 0
M  V30 50 H 6.372120 3.575241 -13.044339 0
M  V30 51 H 9.220866 6.057788 -20.125295 0
M  V30 52 H 13.025822 9.656789 -2.467286 0
M  V30 53 H 12.984331 10.292441 -5.137074 0
M  V30 54 H 11.381771 10.731579 -4.385035 0
M  V30 55 H 9.565918 5.420329 -8.379698 0
M  V30 56 H 8.091375 6.305298 -8.090222 0
M  V30 57 H 9.616729 8.395991 -8.725474 0
M  V30 58 H 8.390946 3.793156 -12.107994 0
M  V30 59 H 8.575421 7.293199 -10.521084 0
M  V30 60 H 6.787637 5.590093 -10.284222 0
M  V30 61 H 7.913407 4.382762 -9.922371 0
M  V30 62 H 10.746732 4.059543 -15.465428 0
M  V30 63 H 5.913111 6.187999 -15.313973 0
M  V30 64 H 7.533495 6.791784 -15.584857 0
M  V30 65 H 6.697003 7.278651 -14.182505 0
M  V30 66 H 10.175408 4.901226 -10.744612 0
M  V30 67 H 10.950288 6.390466 -10.104982 0
M  V30 68 H 6.875942 5.571179 -19.468412 0
M  V30 69 H 8.037012 6.611135 -12.748372 0
M  V30 END ATOM
M  V30 BEGIN BOND
M  V30 1 1 6 5
M  V30 2 1 9 1
M  V30 3 1 9 5
M  V30 4 2 10 7
M  V30 5 1 11 2
M  V30 6 1 13 1
M  V30 7 2 14 4
M  V30 8 2 15 3
M  V30 9 1 16 8
M  V30 10 1 17 13
M  V30 11 1 18 1
M  V30 12 1 18 8
M  V30 13 2 19 2
M  V30 14 1 19 10
M  V30 15 1 20 7
M  V30 16 2 20 11
M  V30 17 1 20 14
M  V30 18 1 21 3
M  V30 19 1 22 14
M  V30 20 1 23 11
M  V30 21 1 23 22
M  V30 22 1 25 19
M  V30 23 1 25 24
M  V30 24 1 26 9
M  V30 25 1 26 18
M  V30 26 1 27 24
M  V30 27 2 28 12
M  V30 28 1 28 13
M  V30 29 1 28 15
M  V30 30 1 29 26
M  V30 31 1 29 27
M  V30 32 1 30 15
M  V30 33 1 1 31 CFG=3
M  V30 34 1 32 6
M  V30 35 1 32 27
M  V30 36 1 33 12
M  V30 37 2 33 21
M  V30 38 1 34 2
M  V30 39 1 35 3
M  V30 40 1 36 5
M  V30 41 1 37 5
M  V30 42 1 38 6
M  V30 43 1 39 6
M  V30 44 1 40 7
M  V30 45 1 41 8
M  V30 46 1 42 8
M  V30 47 1 43 10
M  V30 48 1 44 12
M  V30 49 1 13 45 CFG=1
M  V30 50 1 46 16
M  V30 51 1 47 16
M  V30 52 1 48 16
M  V30 53 1 49 17
M  V30 54 1 18 50 CFG=3
M  V30 55 1 51 21
M  V30 56 1 52 22
M  V30 57 1 53 23
M  V30 58 1 54 23
M  V30 59 1 55 24
M  V30 60 1 56 24
M  V30 61 1 57 25
M  V30 62 1 26 58 CFG=1
M  V30 63 1 27 59 CFG=3
M  V30 64 1 60 29
M  V30 65 1 61 29
M  V30 66 1 62 30
M  V30 67 1 63 31
M  V30 68 1 64 31
M  V30 69 1 65 31
M  V30 70 1 66 32
M  V30 71 1 67 32
M  V30 72 1 68 33
M  V30 73 1 9 69 CFG=1
M  V30 END BOND
M  V30 END CTAB
M  END
>  <i_epik_Tot_Q>  (1) 
1

>  <i_epik_Tot_abs_Q>  (1) 
1

>  <i_i_glide_confnum>  (1) 
71

>  <i_i_glide_lignum>  (1) 
177

>  <i_i_glide_posenum>  (1) 
233

>  <i_i_glide_rotatable_bonds>  (1) 
8

>  <i_lp_mmshare_version>  (1) 
72125

>  <i_m_source_file_index>  (1) 
94

>  <i_f3d_flags>  (1) 
0

>  <num_sample>  (1) 
100

>  <b_lp_Chiralities_Consistent>  (1) 
1

>  <r_epik_Charging_Adjusted_Penalty>  (1) 
0.009895405337619817

>  <r_epik_Ionization_Penalty>  (1) 
0.010018489252536679

>  <r_epik_Ionization_Penalty_Charging>  (1) 
0.00060073207358730301

>  <r_epik_Ionization_Penalty_Neutral>  (1) 
0.0094177571789493767

>  <r_epik_State_Penalty>  (1) 
0.0092946732640325144

>  <r_glide_ring_energy>  (1) 
0

>  <r_i_docking_score>  (1) 
-6.6378801186825518

>  <r_i_glide_ecoul>  (1) 
-4.6493963220541161

>  <r_i_glide_eff_state_penalty>  (1) 
0.0092946732640325144

>  <r_i_glide_einternal>  (1) 
23.957833396810148

>  <r_i_glide_emodel>  (1) 
-25.378941515186995

>  <r_i_glide_emodel_strain>  (1) 
1.5927645957204959

>  <r_i_glide_energy>  (1) 
-26.926307740044575

>  <r_i_glide_erotb>  (1) 
0.49373930985115227

>  <r_i_glide_esite>  (1) 
-0.091905575869255629

>  <r_i_glide_evdw>  (1) 
-22.276911417990458

>  <r_i_glide_gscore>  (1) 
-6.6471747919465844

>  <r_i_glide_gscore_strain>  (1) 
0

>  <r_i_glide_hbond>  (1) 
-0.26588693258849566

>  <r_i_glide_ligand_efficiency>  (1) 
-0.20114788238431974

>  <r_i_glide_ligand_efficiency_ln>  (1) 
-1.4762301692911399

>  <r_i_glide_ligand_efficiency_sa>  (1) 
-0.6451887381536684

>  <r_i_glide_lipo>  (1) 
-2.6370445124368853

>  <r_i_glide_metal>  (1) 
-0

>  <r_i_glide_rewards>  (1) 
-2.3348220616954607

>  <r_lp_Energy>  (1) 
49.614931999999996

>  <r_lp_tautomer_probability>  (1) 
0.99999999999736477

>  <s_epik_cmdline>  (1) 
J2VwaWtfcHl0aG9uJywgJy1waHQnLCAnMS4wJywgJy1waCcsICc3LjQnLCAnLXRuJywgJzgnLCAnLW1hJywgJzUwMCcsICctaW1hZScsICc8aW5maWxlLm1hZT4nLCAnLW9tYWUnLCAnPG91dGZpbGUubWFlPic=

>  <s_epik_input>  (1) 
W09IXWMxW2NIXVtjSF1bY0hdW2NIXWMxW0NASF0oW09IXSlbQ0BAXTIoW0NIM10pW0NASF0oW0NIMl1bQ0gzXSlbQ0BASF0oTjIzKVtDSDJdW0NASF0oW0NIMl1bQ0gyXVtDSDJdMylbQ0gyXVtOSF1jKFtjSF00KVtjSF1bY0hdYyhjNDUpQyg9TylbTkhdW0NIMl01

>  <s_glide_docking_method>  (1) 
confgen

>  <s_i_glide_gridfile>  (1) 
gpcr_drd2_6luq_protein_autoprepared_prepared

>  <s_lp_Force_Field>  (1) 
S-OPLS

>  <s_lp_Variant>  (1) 
DiffSBDD_93-2

>  <s_m_source_file>  (1) 
generated_generic_title2_ligand_DiffSBDD_2026-06-23_prepared.sdf

>  <GenAI_Model>  (1) 
DiffSBDD

>  <Protein>  (1) 
generic_title2

$$$$
DiffSBDD_62
     RDKit          3D

  0  0  0  0  0  0  0  0  0  0999 V3000
M  V30 BEGIN CTAB
M  V30 COUNTS 64 66 0 0 1
M  V30 BEGIN ATOM
M  V30 1 C 11.229915 7.595922 -10.535032 0
M  V30 2 C 7.471186 3.680845 -13.389530 0 CFG=1
M  V30 3 C 7.724206 -0.006568 -13.496901 0
M  V30 4 C 7.230044 1.334631 -13.995430 0 CFG=2
M  V30 5 C 10.882290 7.182762 -4.576452 0
M  V30 6 C 8.249338 5.925951 -12.294266 0
M  V30 7 C 8.973738 6.610090 -11.141826 0 CFG=1
M  V30 8 C 11.844985 8.070527 -3.727134 0 CFG=1
M  V30 9 O 11.518529 9.432929 -3.942489 0
M  V30 10 O 7.584924 6.575303 -13.101999 0
M  V30 11 C 8.401552 4.402173 -12.411325 0
M  V30 12 C 11.819649 7.828705 -2.205801 0
M  V30 13 C 5.979747 3.930535 -13.024660 0
M  V30 14 O 11.739638 5.833240 -6.318454 0
M  V30 15 C 9.142535 5.731935 -9.880069 0 CFG=1
M  V30 16 C 9.796502 6.547299 -8.758570 0
M  V30 17 N 11.435404 8.017475 -6.806704 0
M  V30 18 C 7.653039 1.602378 -15.443257 0
M  V30 19 C 11.925921 9.918221 -5.206830 0
M  V30 20 C 11.960704 7.874593 -8.163820 0
M  V30 21 C 11.092619 9.371222 -6.373334 0
M  V30 22 C 7.852772 4.028055 -14.848276 0
M  V30 23 O 7.802409 2.315136 -13.140648 0
M  V30 24 C 11.375412 6.951401 -5.977227 0
M  V30 25 O 7.932587 5.190246 -9.377965 0
M  V30 26 C 7.232836 3.019115 -15.797325 0
M  V30 27 C 10.334351 7.114054 -11.652332 0
M  V30 28 C 11.006155 7.357332 -9.235364 0
M  V30 29 O 12.975410 8.390226 -1.620768 0
M  V30 30 H 12.100215 8.163208 -10.825143 0
M  V30 31 H 7.355248 -0.809712 -14.131708 0
M  V30 32 H 8.814612 -0.019906 -13.494138 0
M  V30 33 H 7.375662 -0.181723 -12.477807 0
M  V30 34 H 6.143502 1.338985 -13.913357 0
M  V30 35 H 10.738401 6.212616 -4.098787 0
M  V30 36 H 9.896755 7.590234 -4.785023 0
M  V30 37 H 8.384892 7.483502 -10.872635 0
M  V30 38 H 12.880841 7.877335 -4.004804 0
M  V30 39 H 9.441212 4.182696 -12.659169 0
M  V30 40 H 8.228256 3.951400 -11.437559 0
M  V30 41 H 11.814527 6.759078 -1.991498 0
M  V30 42 H 10.975400 8.278741 -1.700479 0
M  V30 43 H 5.675671 4.959679 -13.211795 0
M  V30 44 H 5.284425 3.313355 -13.584909 0
M  V30 45 H 5.799087 3.724358 -11.969729 0
M  V30 46 H 9.777712 4.880515 -10.113666 0
M  V30 47 H 10.074664 5.813379 -8.011774 0
M  V30 48 H 9.078701 7.230535 -8.301845 0
M  V30 49 H 8.728321 1.481457 -15.571559 0
M  V30 50 H 7.169322 0.888718 -16.111032 0
M  V30 51 H 11.775265 10.996338 -5.185091 0
M  V30 52 H 12.992138 9.756482 -5.368206 0
M  V30 53 H 12.421220 8.797144 -8.518494 0
M  V30 54 H 12.797072 7.190551 -8.099712 0
M  V30 55 H 10.023366 9.465162 -6.210473 0
M  V30 56 H 11.375416 10.029633 -7.185047 0
M  V30 57 H 7.516270 5.029927 -15.114158 0
M  V30 58 H 8.935978 4.022163 -14.974116 0
M  V30 59 H 7.362983 5.929269 -9.185035 0
M  V30 60 H 7.424688 3.261352 -16.842505 0
M  V30 61 H 6.175418 3.073582 -15.596802 0
M  V30 62 H 10.175373 7.936702 -12.352249 0
M  V30 63 H 10.871194 6.335251 -12.196513 0
M  V30 64 H 12.962779 9.329819 -1.754006 0
M  V30 END ATOM
M  V30 BEGIN BOND
M  V30 1 1 4 3
M  V30 2 1 7 6
M  V30 3 1 8 5
M  V30 4 1 9 8
M  V30 5 2 10 6
M  V30 6 1 2 11 CFG=1
M  V30 7 1 11 6
M  V30 8 1 12 8
M  V30 9 1 13 2
M  V30 10 1 15 7
M  V30 11 1 16 15
M  V30 12 1 18 4
M  V30 13 1 19 9
M  V30 14 1 20 17
M  V30 15 1 21 17
M  V30 16 1 21 19
M  V30 17 1 22 2
M  V30 18 1 23 2
M  V30 19 1 23 4
M  V30 20 1 24 5
M  V30 21 2 24 14
M  V30 22 1 24 17
M  V30 23 1 25 15
M  V30 24 1 26 18
M  V30 25 1 26 22
M  V30 26 1 27 1
M  V30 27 1 27 7
M  V30 28 2 28 1
M  V30 29 1 28 16
M  V30 30 1 28 20
M  V30 31 1 29 12
M  V30 32 1 30 1
M  V30 33 1 31 3
M  V30 34 1 32 3
M  V30 35 1 33 3
M  V30 36 1 4 34 CFG=3
M  V30 37 1 35 5
M  V30 38 1 36 5
M  V30 39 1 7 37 CFG=1
M  V30 40 1 8 38 CFG=3
M  V30 41 1 39 11
M  V30 42 1 40 11
M  V30 43 1 41 12
M  V30 44 1 42 12
M  V30 45 1 43 13
M  V30 46 1 44 13
M  V30 47 1 45 13
M  V30 48 1 15 46 CFG=3
M  V30 49 1 47 16
M  V30 50 1 48 16
M  V30 51 1 49 18
M  V30 52 1 50 18
M  V30 53 1 51 19
M  V30 54 1 52 19
M  V30 55 1 53 20
M  V30 56 1 54 20
M  V30 57 1 55 21
M  V30 58 1 56 21
M  V30 59 1 57 22
M  V30 60 1 58 22
M  V30 61 1 59 25
M  V30 62 1 60 26
M  V30 63 1 61 26
M  V30 64 1 62 27
M  V30 65 1 63 27
M  V30 66 1 64 29
M  V30 END BOND
M  V30 END CTAB
M  END
>  <i_epik_Tot_Q>  (1) 
0

>  <i_epik_Tot_abs_Q>  (1) 
0

>  <i_i_glide_confnum>  (1) 
129

>  <i_i_glide_lignum>  (1) 
99

>  <i_i_glide_posenum>  (1) 
318

>  <i_i_glide_rotatable_bonds>  (1) 
8

>  <i_lp_mmshare_version>  (1) 
72125

>  <i_m_source_file_index>  (1) 
63

>  <i_f3d_flags>  (1) 
0

>  <num_sample>  (1) 
100

>  <b_lp_Chiralities_Consistent>  (1) 
1

>  <r_epik_Charging_Adjusted_Penalty>  (1) 
0

>  <r_epik_Ionization_Penalty>  (1) 
1.687438170051347e-07

>  <r_epik_Ionization_Penalty_Charging>  (1) 
0

>  <r_epik_Ionization_Penalty_Neutral>  (1) 
1.687438170051347e-07

>  <r_epik_State_Penalty>  (1) 
-0

>  <r_glide_ring_energy>  (1) 
0

>  <r_i_docking_score>  (1) 
-6.628653010255845

>  <r_i_glide_ecoul>  (1) 
-3.5555907558395932

>  <r_i_glide_eff_state_penalty>  (1) 
-0

>  <r_i_glide_einternal>  (1) 
9.149381382102618

>  <r_i_glide_emodel>  (1) 
-36.332382032518808

>  <r_i_glide_emodel_strain>  (1) 
0.69763795400562856

>  <r_i_glide_energy>  (1) 
-31.871107325621221

>  <r_i_glide_erotb>  (1) 
0.7044771691270324

>  <r_i_glide_esite>  (1) 
-0.02200984854880917

>  <r_i_glide_evdw>  (1) 
-28.315516569781629

>  <r_i_glide_gscore>  (1) 
-6.628653010255845

>  <r_i_glide_gscore_strain>  (1) 
0

>  <r_i_glide_hbond>  (1) 
-0.324092977376994

>  <r_i_glide_ligand_efficiency>  (1) 
-0.22857424173296018

>  <r_i_glide_ligand_efficiency_ln>  (1) 
-1.5177934512112896

>  <r_i_glide_ligand_efficiency_sa>  (1) 
-0.70225248879455782

>  <r_i_glide_lipo>  (1) 
-2.9089234773645876

>  <r_i_glide_metal>  (1) 
-0

>  <r_i_glide_rewards>  (1) 
-2.1289894342274662

>  <r_lp_Energy>  (1) 
16.964938999999998

>  <r_lp_tautomer_probability>  (1) 
1

>  <s_epik_cmdline>  (1) 
J2VwaWtfcHl0aG9uJywgJy1waHQnLCAnMS4wJywgJy1waCcsICc3LjQnLCAnLXRuJywgJzgnLCAnLW1hJywgJzUwMCcsICctaW1hZScsICc8aW5maWxlLm1hZT4nLCAnLW9tYWUnLCAnPG91dGZpbGUubWFlPic=

>  <s_epik_input>  (1) 
W09IXVtDSDJdW0NASF0xW0NIMl1DKD1PKU4oW0NIMl1bQ0gyXU8xKVtDSDJdQyg9W0NIXVtDSDJdMilbQ0gyXVtDQEBIXShbT0hdKVtDQEBIXTJDKD1PKVtDSDJdW0NAQF0zKFtDSDNdKVtDSDJdW0NIMl1bQ0gyXVtDQEhdKE8zKVtDSDNd

>  <s_glide_docking_method>  (1) 
confgen

>  <s_i_glide_gridfile>  (1) 
gpcr_drd2_6luq_protein_autoprepared_prepared

>  <s_lp_Force_Field>  (1) 
S-OPLS

>  <s_lp_Variant>  (1) 
DiffSBDD_62-1

>  <s_m_source_file>  (1) 
generated_generic_title2_ligand_DiffSBDD_2026-06-23_prepared.sdf

>  <GenAI_Model>  (1) 
DiffSBDD

>  <Protein>  (1) 
generic_title2

$$$$
DiffSBDD_83
     RDKit          3D

  0  0  0  0  0  0  0  0  0  0999 V3000
M  V30 BEGIN CTAB
M  V30 COUNTS 46 48 0 0 1
M  V30 BEGIN ATOM
M  V30 1 C 7.494690 3.649667 -12.990243 0
M  V30 2 C 12.582373 8.183422 -2.771412 0
M  V30 3 C 11.775413 8.780199 -4.996672 0
M  V30 4 C 10.847299 7.786589 -7.511603 0
M  V30 5 F 12.173026 5.990593 -1.919876 0
M  V30 6 C 12.451403 9.122921 -3.809600 0
M  V30 7 C 11.375411 6.545790 -4.104712 0
M  V30 8 C 7.770129 5.824413 -12.235743 0 CFG=1
M  V30 9 C 12.045590 6.895729 -2.918518 0
M  V30 10 N 7.192842 4.412415 -13.949346 0 CHG=1
M  V30 11 N 8.975418 7.493587 -10.785032 0 CFG=2 CHG=1
M  V30 12 C 7.948029 4.315246 -11.758333 0 CFG=2
M  V30 13 C 11.237885 7.479038 -5.148146 0
M  V30 14 C 9.374640 3.851936 -11.434463 0
M  V30 15 C 8.888220 8.207527 -12.050219 0
M  V30 16 O 10.576524 7.108595 -6.296771 0
M  V30 17 C 10.034804 7.079167 -8.600261 0
M  V30 18 F 13.230605 8.520146 -1.631488 0
M  V30 19 C 5.971663 6.541491 -14.010013 0
M  V30 20 C 10.198858 7.713361 -9.988842 0
M  V30 21 C 8.998182 6.709053 -12.013679 0 CFG=2
M  V30 22 C 7.304180 5.827928 -13.751576 0 CFG=1
M  V30 23 H 7.413362 2.573253 -13.106777 0
M  V30 24 H 11.679154 9.508444 -5.784902 0
M  V30 25 H 11.914338 7.762851 -7.739481 0
M  V30 26 H 10.520485 8.824315 -7.451000 0
M  V30 27 H 12.872040 10.099988 -3.696091 0
M  V30 28 H 10.962442 5.564081 -4.214798 0
M  V30 29 H 6.950946 6.243979 -11.646804 0
M  V30 30 H 9.375427 2.790661 -11.194182 0
M  V30 31 H 10.059641 3.994065 -12.272198 0
M  V30 32 H 9.775240 4.380161 -10.569843 0
M  V30 33 H 9.775407 8.790230 -12.265812 0
M  V30 34 H 7.918716 8.696504 -12.126307 0
M  V30 35 H 8.985818 7.119273 -8.298379 0
M  V30 36 H 10.293969 6.019960 -8.643288 0
M  V30 37 H 6.036940 7.590224 -13.732807 0
M  V30 38 H 5.692462 6.495137 -15.062994 0
M  V30 39 H 5.161397 6.098367 -13.430429 0
M  V30 40 H 11.093377 7.342264 -10.491114 0
M  V30 41 H 10.322438 8.790400 -9.876420 0
M  V30 42 H 9.976260 6.302013 -12.258542 0
M  V30 43 H 8.087869 6.182607 -14.422655 0
M  V30 44 H 8.079167 7.590229 -10.272569 0
M  V30 45 H 7.264855 4.081672 -10.940764 0
M  V30 46 H 6.873193 4.047933 -14.843431 0
M  V30 END ATOM
M  V30 BEGIN BOND
M  V30 1 1 6 2
M  V30 2 2 6 3
M  V30 3 2 9 2
M  V30 4 1 9 5
M  V30 5 1 9 7
M  V30 6 2 10 1
M  V30 7 1 12 1
M  V30 8 1 12 8
M  V30 9 1 13 3
M  V30 10 2 13 7
M  V30 11 1 14 12
M  V30 12 1 15 11
M  V30 13 1 16 4
M  V30 14 1 16 13
M  V30 15 1 17 4
M  V30 16 1 18 2
M  V30 17 1 20 11
M  V30 18 1 20 17
M  V30 19 1 21 8
M  V30 20 1 21 11
M  V30 21 1 21 15
M  V30 22 1 22 8
M  V30 23 1 22 10
M  V30 24 1 22 19
M  V30 25 1 23 1
M  V30 26 1 24 3
M  V30 27 1 25 4
M  V30 28 1 26 4
M  V30 29 1 27 6
M  V30 30 1 28 7
M  V30 31 1 8 29 CFG=1
M  V30 32 1 30 14
M  V30 33 1 31 14
M  V30 34 1 32 14
M  V30 35 1 33 15
M  V30 36 1 34 15
M  V30 37 1 35 17
M  V30 38 1 36 17
M  V30 39 1 37 19
M  V30 40 1 38 19
M  V30 41 1 39 19
M  V30 42 1 40 20
M  V30 43 1 41 20
M  V30 44 1 21 42 CFG=3
M  V30 45 1 22 43 CFG=3
M  V30 46 1 11 44 CFG=1
M  V30 47 1 12 45 CFG=1
M  V30 48 1 46 10
M  V30 END BOND
M  V30 END CTAB
M  END
>  <i_epik_Tot_Q>  (1) 
2

>  <i_epik_Tot_abs_Q>  (1) 
2

>  <i_i_glide_confnum>  (1) 
123

>  <i_i_glide_lignum>  (1) 
150

>  <i_i_glide_posenum>  (1) 
147

>  <i_i_glide_rotatable_bonds>  (1) 
6

>  <i_lp_mmshare_version>  (1) 
72125

>  <i_m_source_file_index>  (1) 
84

>  <i_f3d_flags>  (1) 
0

>  <num_sample>  (1) 
100

>  <b_lp_Chiralities_Consistent>  (1) 
1

>  <r_epik_Charging_Adjusted_Penalty>  (1) 
1.5610925274032894

>  <r_epik_Ionization_Penalty>  (1) 
5.6947270193771686

>  <r_epik_Ionization_Penalty_Charging>  (1) 
0.86989266313289404

>  <r_epik_Ionization_Penalty_Neutral>  (1) 
4.824834356244275

>  <r_epik_State_Penalty>  (1) 
0.69119986427039537

>  <r_glide_ring_energy>  (1) 
0

>  <r_i_docking_score>  (1) 
-6.6204676488685745

>  <r_i_glide_ecoul>  (1) 
-9.6837914742021312

>  <r_i_glide_eff_state_penalty>  (1) 
0.69119986427039537

>  <r_i_glide_einternal>  (1) 
4.8381901221705768

>  <r_i_glide_emodel>  (1) 
-61.26542791721446

>  <r_i_glide_emodel_strain>  (1) 
0.97642378986288492

>  <r_i_glide_energy>  (1) 
-38.114098061884846

>  <r_i_glide_erotb>  (1) 
0.96167990521069524

>  <r_i_glide_esite>  (1) 
-0.10000000000000001

>  <r_i_glide_evdw>  (1) 
-28.430306587682715

>  <r_i_glide_gscore>  (1) 
-7.3116675131389695

>  <r_i_glide_gscore_strain>  (1) 
0

>  <r_i_glide_hbond>  (1) 
-0.16134733889527891

>  <r_i_glide_ligand_efficiency>  (1) 
-0.30093034767584431

>  <r_i_glide_ligand_efficiency_ln>  (1) 
-1.6182837808084505

>  <r_i_glide_ligand_efficiency_sa>  (1) 
-0.84321866997551576

>  <r_i_glide_lipo>  (1) 
-2.3132966847437419

>  <r_i_glide_metal>  (1) 
-0

>  <r_i_glide_rewards>  (1) 
-2.8246193441961878

>  <r_lp_Energy>  (1) 
38.261415

>  <r_lp_tautomer_probability>  (1) 
1

>  <s_epik_Chemistry_Notes>  (1) 
This compound has an imine and may undergo hydrolysis.

>  <s_epik_cmdline>  (1) 
J2VwaWtfcHl0aG9uJywgJy1waHQnLCAnMS4wJywgJy1waCcsICc3LjQnLCAnLXRuJywgJzgnLCAnLW1hJywgJzUwMCcsICctaW1hZScsICc8aW5maWxlLm1hZT4nLCAnLW9tYWUnLCAnPG91dGZpbGUubWFlPic=

>  <s_epik_input>  (1) 
W0NIM11bQ0BASF0xTj1bQ0hdW0NAQEhdKFtDSDNdKVtDQEhdMVtDQEhdMltDSDJdTjJbQ0gyXVtDSDJdW0NIMl1PYyhbY0hdYzNGKVtjSF1bY0hdYzNG

>  <s_glide_docking_method>  (1) 
confgen

>  <s_i_glide_gridfile>  (1) 
gpcr_drd2_6luq_protein_autoprepared_prepared

>  <s_lp_Force_Field>  (1) 
S-OPLS

>  <s_lp_Variant>  (1) 
DiffSBDD_83-4

>  <s_m_source_file>  (1) 
generated_generic_title2_ligand_DiffSBDD_2026-06-23_prepared.sdf

>  <GenAI_Model>  (1) 
DiffSBDD

>  <Protein>  (1) 
generic_title2

$$$$
DiffSBDD_34
     RDKit          3D

  0  0  0  0  0  0  0  0  0  0999 V3000
M  V30 BEGIN CTAB
M  V30 COUNTS 48 50 0 0 1
M  V30 BEGIN ATOM
M  V30 1 O 7.418529 6.371758 -13.736196 0
M  V30 2 C 11.375481 7.647299 -4.891076 0
M  V30 3 C 12.185479 8.014121 -2.192889 0
M  V30 4 C 7.993798 6.299057 -12.433590 0 CFG=2
M  V30 5 C 9.583984 5.428260 -13.970586 0
M  V30 6 C 9.723226 6.173096 -7.816012 0
M  V30 7 C 9.508714 6.261543 -12.706426 0
M  V30 8 C 8.266064 5.727670 -14.687771 0
M  V30 9 C 10.294594 6.837311 -8.918249 0
M  V30 10 N 10.078955 6.429892 -6.532161 0
M  V30 11 C 11.706906 10.173126 -5.311734 0
M  V30 12 C 12.175488 9.105865 -3.068748 0
M  V30 13 C 11.628051 8.095290 -7.377161 0
M  V30 14 C 11.005057 7.402432 -6.315402 0
M  V30 15 C 6.963113 3.878321 -12.401601 0
M  V30 16 O 9.268139 4.135882 -10.592401 0
M  V30 17 C 11.269152 7.800469 -8.684197 0
M  V30 18 C 8.656035 5.093426 -8.017506 0
M  V30 19 C 11.767599 8.945249 -4.408864 0
M  V30 20 C 8.239001 4.790146 -10.421240 0
M  V30 21 C 7.344282 5.147255 -11.608122 0 CFG=1
M  V30 22 C 11.778797 6.752157 -2.639558 0
M  V30 23 C 11.375413 6.568805 -3.974494 0
M  V30 24 N 7.854580 5.243140 -9.226082 0
M  V30 25 Cl 12.035826 8.601148 -9.985101 0
M  V30 26 H 12.497628 8.149146 -1.170833 0
M  V30 27 H 7.764099 7.235137 -11.921143 0
M  V30 28 H 9.613149 4.379396 -13.683927 0
M  V30 29 H 10.472192 5.595396 -14.579637 0
M  V30 30 H 9.862901 7.288347 -12.785032 0
M  V30 31 H 10.157568 5.851275 -11.940838 0
M  V30 32 H 7.807159 4.811838 -15.060901 0
M  V30 33 H 8.412329 6.390227 -15.537783 0
M  V30 34 H 9.999102 6.602995 -9.921578 0
M  V30 35 H 12.677133 10.389887 -5.756701 0
M  V30 36 H 10.941200 10.099197 -6.080665 0
M  V30 37 H 11.375411 11.043132 -4.750322 0
M  V30 38 H 12.470960 10.075558 -2.710120 0
M  V30 39 H 12.393852 8.823700 -7.188986 0
M  V30 40 H 6.393749 3.189575 -11.778115 0
M  V30 41 H 6.326325 4.114821 -13.254885 0
M  V30 42 H 7.834942 3.339555 -12.770874 0
M  V30 43 H 9.110593 4.104292 -7.984882 0
M  V30 44 H 7.955487 5.169926 -7.185888 0
M  V30 45 H 6.405081 5.546291 -11.219433 0
M  V30 46 H 11.778776 5.913770 -1.958065 0
M  V30 47 H 11.078961 5.590483 -4.307799 0
M  V30 48 H 7.009698 5.801392 -9.162729 0
M  V30 END ATOM
M  V30 BEGIN BOND
M  V30 1 1 4 1
M  V30 2 1 7 4
M  V30 3 1 7 5
M  V30 4 1 8 1
M  V30 5 1 8 5
M  V30 6 1 9 6
M  V30 7 2 10 6
M  V30 8 1 12 3
M  V30 9 1 14 2
M  V30 10 1 14 10
M  V30 11 2 14 13
M  V30 12 2 17 9
M  V30 13 1 17 13
M  V30 14 1 18 6
M  V30 15 1 19 2
M  V30 16 1 19 11
M  V30 17 2 19 12
M  V30 18 2 20 16
M  V30 19 1 21 4
M  V30 20 1 21 15
M  V30 21 1 21 20
M  V30 22 2 22 3
M  V30 23 2 23 2
M  V30 24 1 23 22
M  V30 25 1 24 18
M  V30 26 1 24 20
M  V30 27 1 25 17
M  V30 28 1 26 3
M  V30 29 1 4 27 CFG=1
M  V30 30 1 28 5
M  V30 31 1 29 5
M  V30 32 1 30 7
M  V30 33 1 31 7
M  V30 34 1 32 8
M  V30 35 1 33 8
M  V30 36 1 34 9
M  V30 37 1 35 11
M  V30 38 1 36 11
M  V30 39 1 37 11
M  V30 40 1 38 12
M  V30 41 1 39 13
M  V30 42 1 40 15
M  V30 43 1 41 15
M  V30 44 1 42 15
M  V30 45 1 43 18
M  V30 46 1 44 18
M  V30 47 1 21 45 CFG=1
M  V30 48 1 46 22
M  V30 49 1 47 23
M  V30 50 1 48 24
M  V30 END BOND
M  V30 END CTAB
M  END
>  <i_epik_Tot_Q>  (1) 
0

>  <i_epik_Tot_abs_Q>  (1) 
0

>  <i_i_glide_confnum>  (1) 
93

>  <i_i_glide_lignum>  (1) 
58

>  <i_i_glide_posenum>  (1) 
123

>  <i_i_glide_rotatable_bonds>  (1) 
6

>  <i_lp_mmshare_version>  (1) 
72125

>  <i_m_source_file_index>  (1) 
35

>  <i_f3d_flags>  (1) 
0

>  <num_sample>  (1) 
100

>  <b_lp_Chiralities_Consistent>  (1) 
1

>  <r_epik_Charging_Adjusted_Penalty>  (1) 
0

>  <r_epik_Ionization_Penalty>  (1) 
0.00017143064018834461

>  <r_epik_Ionization_Penalty_Charging>  (1) 
0

>  <r_epik_Ionization_Penalty_Neutral>  (1) 
0.00017143064018834461

>  <r_epik_State_Penalty>  (1) 
-0

>  <r_glide_ring_energy>  (1) 
1.236193072622225

>  <r_i_docking_score>  (1) 
-6.6156698513747454

>  <r_i_glide_ecoul>  (1) 
-1.2652538332021654

>  <r_i_glide_eff_state_penalty>  (1) 
-0

>  <r_i_glide_einternal>  (1) 
1.9450479222922912

>  <r_i_glide_emodel>  (1) 
-45.000761882051016

>  <r_i_glide_emodel_strain>  (1) 
3.0785559637512279

>  <r_i_glide_energy>  (1) 
-36.726086639436794

>  <r_i_glide_erotb>  (1) 
0.74388536090720081

>  <r_i_glide_esite>  (1) 
-0.13759582800121772

>  <r_i_glide_evdw>  (1) 
-35.460832806234627

>  <r_i_glide_gscore>  (1) 
-6.6156698513747454

>  <r_i_glide_gscore_strain>  (1) 
0

>  <r_i_glide_hbond>  (1) 
-0.10799367194600019

>  <r_i_glide_ligand_efficiency>  (1) 
-0.26462679405498979

>  <r_i_glide_ligand_efficiency_ln>  (1) 
-1.5681120104030133

>  <r_i_glide_ligand_efficiency_sa>  (1) 
-0.77377343982319324

>  <r_i_glide_lipo>  (1) 
-3.2890772195106157

>  <r_i_glide_metal>  (1) 
-0

>  <r_i_glide_rewards>  (1) 
-1.8620587775320554

>  <r_lp_Energy>  (1) 
20.281278999999998

>  <r_lp_tautomer_probability>  (1) 
1

>  <s_epik_cmdline>  (1) 
J2VwaWtfcHl0aG9uJywgJy1waHQnLCAnMS4wJywgJy1waCcsICc3LjQnLCAnLXRuJywgJzgnLCAnLW1hJywgJzUwMCcsICctaW1hZScsICc8aW5maWxlLm1hZT4nLCAnLW9tYWUnLCAnPG91dGZpbGUubWFlPic=

>  <s_epik_input>  (1) 
W0NIMl0xW0NIMl1bQ0gyXU9bQ0BIXTFbQ0BIXShbQ0gzXSlDKD1PKVtOSF1bQ0gyXWMyW2NIXWMoQ2wpW2NIXWMobjIpLWMzYyhbQ0gzXSlbY0hdW2NIXVtjSF1bY0hdMw==

>  <s_glide_docking_method>  (1) 
confgen

>  <s_i_glide_gridfile>  (1) 
gpcr_drd2_6luq_protein_autoprepared_prepared

>  <s_lp_Force_Field>  (1) 
S-OPLS

>  <s_lp_Variant>  (1) 
DiffSBDD_34-2

>  <s_m_source_file>  (1) 
generated_generic_title2_ligand_DiffSBDD_2026-06-23_prepared.sdf

>  <GenAI_Model>  (1) 
DiffSBDD

>  <Protein>  (1) 
generic_title2

$$$$
DiffSBDD_90
     RDKit          3D

  0  0  0  0  0  0  0  0  0  0999 V3000
M  V30 BEGIN CTAB
M  V30 COUNTS 80 84 0 0 1
M  V30 BEGIN ATOM
M  V30 1 C 7.429157 7.230097 -13.471907 0
M  V30 2 C 8.497116 6.236619 -12.989494 0 CFG=1
M  V30 3 C 10.009722 7.826237 -10.099891 0
M  V30 4 C 7.375153 6.129515 -17.371855 0 CFG=2
M  V30 5 C 10.792739 6.963731 -11.946432 0
M  V30 6 C 10.063712 8.463885 -8.822947 0 CFG=2
M  V30 7 C 6.398251 3.965754 -14.470287 0 CFG=2
M  V30 8 O 5.545921 6.562597 -14.726260 0 CHG=-1
M  V30 9 C 6.118890 6.426617 -13.561733 0 CFG=1
M  V30 10 C 5.360945 7.592329 -17.951863 0
M  V30 11 O 6.097162 6.039050 -22.122825 0
M  V30 12 C 9.417032 6.824532 -11.978719 0
M  V30 13 C 7.463649 4.325001 -11.256152 0 CFG=2
M  V30 14 O 6.426224 7.973537 -21.036893 0 CHG=-1
M  V30 15 O 8.460382 5.546898 -17.821139 0 CHG=-1
M  V30 16 C 7.234431 4.130189 -15.805991 0 CFG=2
M  V30 17 N 6.575442 5.138718 -16.671729 0 CHG=1
M  V30 18 N 6.498803 4.998399 -13.385294 0 CFG=2 CHG=1
M  V30 19 C 5.101718 3.991946 -20.439282 0
M  V30 20 C 7.324011 2.853022 -16.707726 0
M  V30 21 O 8.182011 4.790151 -10.134871 0
M  V30 22 O 8.319374 1.920756 -16.353183 0
M  V30 23 O 8.175374 1.180685 -12.785042 0
M  V30 24 C 8.343763 3.620934 -12.288890 0 CFG=1
M  V30 25 C 6.237494 6.736269 -21.093990 0
M  V30 26 C 6.531397 2.602612 -13.779477 0
M  V30 27 N 11.070706 7.595141 -10.764861 0
M  V30 28 O 4.175594 4.390050 -21.146102 0
M  V30 29 C 11.627568 8.801796 -8.943063 0
M  V30 30 N 8.975715 7.390108 -10.798266 0 CHG=1
M  V30 31 C 6.591404 6.844139 -18.508586 0 CFG=2
M  V30 32 O 10.370344 8.789436 -5.983754 0
M  V30 33 O 9.775485 7.521192 -7.807171 0
M  V30 34 C 9.351358 8.095671 -6.621327 0
M  V30 35 C 5.518355 2.526093 -20.475040 0
M  V30 36 C 6.184806 5.991010 -19.723835 0
M  V30 37 C 7.943571 2.486853 -13.233220 0 CFG=2
M  V30 38 C 11.337419 7.936089 -5.390160 0
M  V30 39 N 5.845577 4.751711 -19.554165 0
M  V30 40 C 12.297970 8.033819 -10.180557 0
M  V30 41 C 7.737515 4.985017 -12.596202 0 CFG=1
M  V30 42 H 7.302901 8.054171 -12.770771 0
M  V30 43 H 7.730806 7.679549 -14.417972 0
M  V30 44 H 9.101960 5.958622 -13.853477 0
M  V30 45 H 7.375307 6.790251 -16.530445 0
M  V30 46 H 11.558339 6.678835 -12.654269 0
M  V30 47 H 9.375359 9.301007 -8.867994 0
M  V30 48 H 5.375399 4.060173 -14.735608 0
M  V30 49 H 5.572716 6.658368 -12.642925 0
M  V30 50 H 4.900960 8.216329 -18.719175 0
M  V30 51 H 4.598167 6.903609 -17.587153 0
M  V30 52 H 5.630093 8.246884 -17.122563 0
M  V30 53 H 6.484904 3.912499 -11.013518 0
M  V30 54 H 8.243372 4.459993 -15.549738 0
M  V30 55 H 5.987584 4.685317 -17.354161 0
M  V30 56 H 7.569377 3.123438 -17.735323 0
M  V30 57 H 6.367143 2.336309 -16.767056 0
M  V30 58 H 7.606692 5.301930 -9.580238 0
M  V30 59 H 8.372463 1.265420 -17.033460 0
M  V30 60 H 8.888202 1.187955 -12.151189 0
M  V30 61 H 9.406919 3.609861 -12.050545 0
M  V30 62 H 5.804093 2.505695 -12.972270 0
M  V30 63 H 6.314714 1.782562 -14.465018 0
M  V30 64 H 11.723419 9.870631 -9.141115 0
M  V30 65 H 12.166088 8.625101 -8.013571 0
M  V30 66 H 7.299101 7.587398 -18.868889 0
M  V30 67 H 8.517430 8.774584 -6.810034 0
M  V30 68 H 8.975066 7.294673 -5.984950 0
M  V30 69 H 6.592001 2.439069 -20.640976 0
M  V30 70 H 5.269332 2.034293 -19.534852 0
M  V30 71 H 5.008669 2.001771 -21.283844 0
M  V30 72 H 8.575445 2.602305 -14.087944 0
M  V30 73 H 12.137495 8.535242 -4.954264 0
M  V30 74 H 10.906364 7.326368 -4.595366 0
M  V30 75 H 11.775315 7.262421 -6.126949 0
M  V30 76 H 12.888326 7.190033 -9.851160 0
M  V30 77 H 12.859931 8.681815 -10.852329 0
M  V30 78 H 7.996317 7.464587 -10.490047 0
M  V30 79 H 6.002609 5.712900 -16.025013 0
M  V30 80 H 5.789418 4.677561 -12.744161 0
M  V30 END ATOM
M  V30 BEGIN BOND
M  V30 1 1 2 1
M  V30 2 1 6 3
M  V30 3 1 9 1
M  V30 4 1 9 8
M  V30 5 1 12 2
M  V30 6 2 12 5
M  V30 7 1 15 4
M  V30 8 1 16 7
M  V30 9 1 17 4
M  V30 10 1 17 16
M  V30 11 1 18 7
M  V30 12 1 18 9
M  V30 13 1 20 16
M  V30 14 1 21 13
M  V30 15 1 22 20
M  V30 16 1 24 13
M  V30 17 2 25 11
M  V30 18 1 25 14
M  V30 19 1 26 7
M  V30 20 1 27 3
M  V30 21 1 27 5
M  V30 22 2 28 19
M  V30 23 1 29 6
M  V30 24 2 30 3
M  V30 25 1 30 12
M  V30 26 1 31 4
M  V30 27 1 31 10
M  V30 28 1 33 6
M  V30 29 1 34 32
M  V30 30 1 34 33
M  V30 31 1 35 19
M  V30 32 1 36 25
M  V30 33 1 36 31
M  V30 34 1 37 23
M  V30 35 1 37 24
M  V30 36 1 37 26
M  V30 37 1 38 32
M  V30 38 1 39 19
M  V30 39 2 39 36
M  V30 40 1 40 27
M  V30 41 1 40 29
M  V30 42 1 41 2 CFG=1
M  V30 43 1 41 13
M  V30 44 1 41 18
M  V30 45 1 41 24
M  V30 46 1 42 1
M  V30 47 1 43 1
M  V30 48 1 2 44 CFG=3
M  V30 49 1 4 45 CFG=1
M  V30 50 1 46 5
M  V30 51 1 6 47 CFG=3
M  V30 52 1 7 48 CFG=3
M  V30 53 1 9 49 CFG=1
M  V30 54 1 50 10
M  V30 55 1 51 10
M  V30 56 1 52 10
M  V30 57 1 13 53 CFG=1
M  V30 58 1 16 54 CFG=1
M  V30 59 1 55 17
M  V30 60 1 56 20
M  V30 61 1 57 20
M  V30 62 1 58 21
M  V30 63 1 59 22
M  V30 64 1 60 23
M  V30 65 1 24 61 CFG=1
M  V30 66 1 62 26
M  V30 67 1 63 26
M  V30 68 1 64 29
M  V30 69 1 65 29
M  V30 70 1 31 66 CFG=3
M  V30 71 1 67 34
M  V30 72 1 68 34
M  V30 73 1 69 35
M  V30 74 1 70 35
M  V30 75 1 71 35
M  V30 76 1 37 72 CFG=3
M  V30 77 1 73 38
M  V30 78 1 74 38
M  V30 79 1 75 38
M  V30 80 1 76 40
M  V30 81 1 77 40
M  V30 82 1 78 30
M  V30 83 1 79 17
M  V30 84 1 18 80 CFG=1
M  V30 END BOND
M  V30 END CTAB
M  END
>  <i_epik_Tot_Q>  (1) 
0

>  <i_epik_Tot_abs_Q>  (1) 
6

>  <i_i_glide_confnum>  (1) 
3707

>  <i_i_glide_lignum>  (1) 
169

>  <i_i_glide_posenum>  (1) 
4

>  <i_i_glide_rotatable_bonds>  (1) 
15

>  <i_lp_mmshare_version>  (1) 
72125

>  <i_m_source_file_index>  (1) 
91

>  <i_f3d_flags>  (1) 
0

>  <num_sample>  (1) 
100

>  <b_lp_Chiralities_Consistent>  (1) 
1

>  <r_epik_Charging_Adjusted_Penalty>  (1) 
0.35079833336250127

>  <r_epik_Ionization_Penalty>  (1) 
1.4702178244609605

>  <r_epik_Ionization_Penalty_Charging>  (1) 
0.099885809697688246

>  <r_epik_Ionization_Penalty_Neutral>  (1) 
1.3703320147632723

>  <r_epik_State_Penalty>  (1) 
0.25091252366481304

>  <r_glide_ring_energy>  (1) 
0

>  <r_i_docking_score>  (1) 
-6.615236596248498

>  <r_i_glide_ecoul>  (1) 
-14.065344045046439

>  <r_i_glide_eff_state_penalty>  (1) 
0.25091252366481304

>  <r_i_glide_einternal>  (1) 
10.37889380166124

>  <r_i_glide_emodel>  (1) 
-55.56991929055647

>  <r_i_glide_emodel_strain>  (1) 
2.5008042393472465

>  <r_i_glide_energy>  (1) 
-42.046547933360245

>  <r_i_glide_erotb>  (1) 
0.57888693115673628

>  <r_i_glide_esite>  (1) 
-0.2339580186246499

>  <r_i_glide_evdw>  (1) 
-27.981203888313807

>  <r_i_glide_gscore>  (1) 
-6.8661491199133113

>  <r_i_glide_gscore_strain>  (1) 
0

>  <r_i_glide_hbond>  (1) 
-0.52223545362127544

>  <r_i_glide_ligand_efficiency>  (1) 
-0.16134723405484142

>  <r_i_glide_ligand_efficiency_ln>  (1) 
-1.4034444583922143

>  <r_i_glide_ligand_efficiency_sa>  (1) 
-0.55636031415597187

>  <r_i_glide_lipo>  (1) 
-2.081529456584605

>  <r_i_glide_metal>  (1) 
-0

>  <r_i_glide_rewards>  (1) 
-1.0984513210668609

>  <r_lp_Energy>  (1) 
80.22188899999999

>  <r_lp_tautomer_probability>  (1) 
1

>  <s_epik_Chemistry_Notes>  (1) 
This compound has an imine and may undergo hydrolysis. This compound contains an acetal/aminal-like group ( X-CH(R)-Y where X, Y are N, S, or O) that may be acid/base labile, releasing an aldehyde.

>  <s_epik_cmdline>  (1) 
J2VwaWtfcHl0aG9uJywgJy1waHQnLCAnMS4wJywgJy1waCcsICc3LjQnLCAnLXRuJywgJzgnLCAnLW1hJywgJzUwMCcsICctaW1hZScsICc8aW5maWxlLm1hZT4nLCAnLW9tYWUnLCAnPG91dGZpbGUubWFlPic=

>  <s_epik_input>  (1) 
W0NIM11PW0NIMl1PW0NASF0xW0NIMl1bQ0gyXW4oYzEyKVtjSF1jKG4yKVtDQEBIXTNbQ0gyXVtDQEBIXShbT0hdKU4oW0NAQF0zNDUpW0NASF0oW0NIMl1bQ0BIXShbT0hdKVtDQEBIXTVbQ0BIXTRbT0hdKVtDQEBIXShbQ0gyXVtPSF0pW05IXVtDQEBIXShbT0hdKVtDQEhdKFtDSDNdKUMoXEMoPU8pW09IXSk9TlxDKD1PKVtDSDNd

>  <s_glide_docking_method>  (1) 
confgen

>  <s_i_glide_gridfile>  (1) 
gpcr_drd2_6luq_protein_autoprepared_prepared

>  <s_lp_Force_Field>  (1) 
S-OPLS

>  <s_lp_Variant>  (1) 
DiffSBDD_90-4

>  <s_m_source_file>  (1) 
generated_generic_title2_ligand_DiffSBDD_2026-06-23_prepared.sdf

>  <GenAI_Model>  (1) 
DiffSBDD

>  <Protein>  (1) 
generic_title2

$$$$
DiffSBDD_52
     RDKit          3D

  0  0  0  0  0  0  0  0  0  0999 V3000
M  V30 BEGIN CTAB
M  V30 COUNTS 50 53 0 0 1
M  V30 BEGIN ATOM
M  V30 1 C 12.043422 9.353183 -3.424145 0
M  V30 2 F 12.807494 8.141468 -1.442070 0
M  V30 3 C 8.061194 7.200967 -12.202226 0 CFG=1
M  V30 4 C 7.928800 4.572625 -11.481152 0
M  V30 5 C 8.608197 5.456932 -10.467270 0 CFG=2
M  V30 6 C 12.025567 6.854008 -3.185283 0
M  V30 7 C 10.653200 8.602394 -7.576007 0
M  V30 8 C 7.389147 4.109954 -13.933906 0
M  V30 9 C 12.289559 8.066134 -2.675848 0
M  V30 10 N 8.575410 6.835425 -10.868525 0 CFG=1 CHG=1
M  V30 11 C 11.091099 7.916188 -5.342686 0 CFG=2
M  V30 12 O 8.575410 8.388324 -12.385025 0 CHG=-1
M  V30 13 C 6.624071 5.279065 -14.548278 0
M  V30 14 O 11.228909 7.627946 -6.722785 0
M  V30 15 C 11.907362 9.176245 -4.942771 0
M  V30 16 C 8.371202 4.749695 -12.937452 0 CFG=1
M  V30 17 C 7.668168 6.389774 -14.611796 0
M  V30 18 C 9.816186 7.916547 -8.647340 0
M  V30 19 C 11.452440 6.625473 -4.573000 0
M  V30 20 C 9.884471 6.263995 -10.652636 0 CFG=1
M  V30 21 C 10.625430 6.908712 -9.485495 0
M  V30 22 C 8.502490 6.230799 -13.329092 0 CFG=1
M  V30 23 H 11.155024 9.832333 -3.013310 0
M  V30 24 H 12.894599 9.990216 -3.207240 0
M  V30 25 H 6.980331 7.084660 -12.102822 0
M  V30 26 H 8.182343 3.589912 -11.179150 0
M  V30 27 H 6.847931 4.683408 -11.378193 0
M  V30 28 H 8.218555 5.375296 -9.454288 0
M  V30 29 H 12.229211 5.971646 -2.595914 0
M  V30 30 H 9.986012 9.266720 -7.029670 0
M  V30 31 H 11.444391 9.208089 -8.018643 0
M  V30 32 H 7.950299 3.595919 -14.715387 0
M  V30 33 H 6.727266 3.373868 -13.475773 0
M  V30 34 H 10.032213 8.106002 -5.184959 0
M  V30 35 H 6.202098 5.041747 -15.524819 0
M  V30 36 H 5.805249 5.575611 -13.891346 0
M  V30 37 H 11.430222 10.068214 -5.348592 0
M  V30 38 H 12.901794 9.185087 -5.387914 0
M  V30 39 H 9.345629 4.270154 -13.051350 0
M  V30 40 H 8.304224 6.219929 -15.480584 0
M  V30 41 H 7.228317 7.382681 -14.716509 0
M  V30 42 H 8.975426 7.413690 -8.166465 0
M  V30 43 H 9.397387 8.697738 -9.284337 0
M  V30 44 H 12.175407 6.041652 -5.140074 0
M  V30 45 H 10.569816 5.990277 -4.490204 0
M  V30 46 H 10.453967 6.143725 -11.570776 0
M  V30 47 H 11.512371 7.403239 -9.883067 0
M  V30 48 H 10.975387 6.114307 -8.825387 0
M  V30 49 H 9.552236 6.390221 -13.552418 0
M  V30 50 H 8.087554 7.353432 -10.122541 0
M  V30 END ATOM
M  V30 BEGIN BOND
M  V30 1 1 5 4
M  V30 2 1 9 1
M  V30 3 1 9 2
M  V30 4 2 9 6
M  V30 5 1 10 3
M  V30 6 1 10 5
M  V30 7 1 12 3
M  V30 8 1 13 8
M  V30 9 1 14 7
M  V30 10 1 14 11
M  V30 11 1 15 1
M  V30 12 1 15 11
M  V30 13 1 16 4
M  V30 14 1 16 8
M  V30 15 1 17 13
M  V30 16 1 18 7
M  V30 17 1 19 6
M  V30 18 1 19 11
M  V30 19 1 20 5
M  V30 20 1 20 10
M  V30 21 1 21 18
M  V30 22 1 21 20
M  V30 23 1 22 3
M  V30 24 1 22 16
M  V30 25 1 22 17
M  V30 26 1 23 1
M  V30 27 1 24 1
M  V30 28 1 3 25 CFG=1
M  V30 29 1 26 4
M  V30 30 1 27 4
M  V30 31 1 5 28 CFG=1
M  V30 32 1 29 6
M  V30 33 1 30 7
M  V30 34 1 31 7
M  V30 35 1 32 8
M  V30 36 1 33 8
M  V30 37 1 11 34 CFG=3
M  V30 38 1 35 13
M  V30 39 1 36 13
M  V30 40 1 37 15
M  V30 41 1 38 15
M  V30 42 1 16 39 CFG=1
M  V30 43 1 40 17
M  V30 44 1 41 17
M  V30 45 1 42 18
M  V30 46 1 43 18
M  V30 47 1 44 19
M  V30 48 1 45 19
M  V30 49 1 20 46 CFG=3
M  V30 50 1 47 21
M  V30 51 1 48 21
M  V30 52 1 22 49 CFG=3
M  V30 53 1 10 50 CFG=1
M  V30 END BOND
M  V30 END CTAB
M  END
>  <i_epik_Tot_Q>  (1) 
0

>  <i_epik_Tot_abs_Q>  (1) 
2

>  <i_i_glide_confnum>  (1) 
29

>  <i_i_glide_lignum>  (1) 
82

>  <i_i_glide_posenum>  (1) 
322

>  <i_i_glide_rotatable_bonds>  (1) 
5

>  <i_lp_mmshare_version>  (1) 
72125

>  <i_m_source_file_index>  (1) 
53

>  <i_f3d_flags>  (1) 
0

>  <num_sample>  (1) 
100

>  <b_lp_Chiralities_Consistent>  (1) 
1

>  <r_epik_Charging_Adjusted_Penalty>  (1) 
0.66076975529779935

>  <r_epik_Ionization_Penalty>  (1) 
0.32551799850713803

>  <r_epik_Ionization_Penalty_Charging>  (1) 
0.32551799850601437

>  <r_epik_Ionization_Penalty_Neutral>  (1) 
1.1236391675704673e-12

>  <r_epik_State_Penalty>  (1) 
0.33525175679178498

>  <r_glide_ring_energy>  (1) 
0

>  <r_i_docking_score>  (1) 
-6.6125095709573962

>  <r_i_glide_ecoul>  (1) 
-7.4078653460430051

>  <r_i_glide_eff_state_penalty>  (1) 
0.33525175679178498

>  <r_i_glide_einternal>  (1) 
5.523936623723376

>  <r_i_glide_emodel>  (1) 
-43.535176339804011

>  <r_i_glide_emodel_strain>  (1) 
1.1693136278838452

>  <r_i_glide_energy>  (1) 
-31.40809526387384

>  <r_i_glide_erotb>  (1) 
0.58016400484968

>  <r_i_glide_esite>  (1) 
-0.17469428423023137

>  <r_i_glide_evdw>  (1) 
-24.000229917830836

>  <r_i_glide_gscore>  (1) 
-6.9477613277491814

>  <r_i_glide_gscore_strain>  (1) 
0

>  <r_i_glide_hbond>  (1) 
-0.15674646833301903

>  <r_i_glide_ligand_efficiency>  (1) 
-0.30056861686169983

>  <r_i_glide_ligand_efficiency_ln>  (1) 
-1.6163385362890137

>  <r_i_glide_ligand_efficiency_sa>  (1) 
-0.84220508600717292

>  <r_i_glide_lipo>  (1) 
-2.6210240513056386

>  <r_i_glide_metal>  (1) 
-0

>  <r_i_glide_rewards>  (1) 
-2.264269230931979

>  <r_lp_Energy>  (1) 
29.210184999999999

>  <s_epik_Chemistry_Notes>  (1) 
This compound contains an acetal/aminal-like group ( X-CH(R)-Y where X, Y are N, S, or O) that may be acid/base labile, releasing an aldehyde.

>  <s_epik_cmdline>  (1) 
J2VwaWtfcHl0aG9uJywgJy1waHQnLCAnMS4wJywgJy1waCcsICc3LjQnLCAnLXRuJywgJzgnLCAnLW1hJywgJzUwMCcsICctaW1hZScsICc8aW5maWxlLm1hZT4nLCAnLW9tYWUnLCAnPG91dGZpbGUubWFlPic=

>  <s_epik_input>  (1) 
RkMxPVtDSF1bQ0gyXVtDQEBIXShbQ0gyXVtDSDJdMSlPW0NIMl1bQ0gyXVtDSDJdW0NAQEhdMk4oW0NASF0yMylbQ0BASF0oW09IXSlbQ0BIXTRbQ0BASF0oW0NIMl0zKVtDSDJdW0NIMl1bQ0gyXTQ=

>  <s_glide_docking_method>  (1) 
confgen

>  <s_i_glide_gridfile>  (1) 
gpcr_drd2_6luq_protein_autoprepared_prepared

>  <s_lp_Force_Field>  (1) 
S-OPLS

>  <s_lp_Variant>  (1) 
DiffSBDD_52-1

>  <s_m_source_file>  (1) 
generated_generic_title2_ligand_DiffSBDD_2026-06-23_prepared.sdf

>  <GenAI_Model>  (1) 
DiffSBDD

>  <Protein>  (1) 
generic_title2

$$$$
DiffSBDD_64
     RDKit          3D

  0  0  0  0  0  0  0  0  0  0999 V3000
M  V30 BEGIN CTAB
M  V30 COUNTS 77 80 0 0 1
M  V30 BEGIN ATOM
M  V30 1 C 6.571321 5.977242 -17.059078 0
M  V30 2 C 10.546189 8.392376 -9.144184 0
M  V30 3 C 4.787347 6.559782 -18.794797 0 CFG=2
M  V30 4 C 6.258678 5.581547 -11.654017 0
M  V30 5 C 10.799582 7.223009 -5.524830 0
M  V30 6 C 4.374589 8.651469 -20.287921 0
M  V30 7 C 6.322154 6.548546 -12.842734 0 CFG=1
M  V30 8 O 12.605487 8.268914 -7.984633 0
M  V30 9 C 6.287107 7.032565 -20.652693 0
M  V30 10 C 3.675685 7.073531 -17.860559 0
M  V30 11 C 7.656631 5.193091 -11.139328 0
M  V30 12 C 11.186457 8.692099 -5.372015 0
M  V30 13 C 10.904074 9.307704 -6.732990 0
M  V30 14 C 8.488966 6.591881 -19.406977 0
M  V30 15 N 6.182449 6.700648 -18.301057 0 CFG=2 CHG=1
M  V30 16 C 6.078535 8.053456 -15.616644 0
M  V30 17 C 11.207591 8.206906 -7.758952 0 CFG=1
M  V30 18 C 4.818742 7.179653 -20.212678 0 CFG=1
M  V30 19 C 6.979864 6.314338 -19.493327 0 CFG=1
M  V30 20 C 7.210108 7.736496 -12.449735 0
M  V30 21 C 8.587363 7.319277 -11.937409 0
M  V30 22 C 10.834471 7.210565 -10.100008 0
M  V30 23 C 9.651842 5.355716 -8.741737 0
M  V30 24 C 9.511312 6.244077 -7.494202 0
M  V30 25 C 10.843039 6.887343 -7.030923 0 CFG=2
M  V30 26 S 6.922308 5.722182 -14.353953 0
M  V30 27 N 8.477528 6.390324 -10.785007 0 CFG=2 CHG=1
M  V30 28 C 9.775604 6.062341 -10.124115 0 CFG=1
M  V30 29 C 6.018518 6.524258 -15.723483 0 CFG=2
M  V30 30 H 7.657186 5.990227 -16.976726 0
M  V30 31 H 6.278470 4.946615 -17.171353 0
M  V30 32 H 9.472403 8.555919 -9.054321 0
M  V30 33 H 10.938048 9.309641 -9.585037 0
M  V30 34 H 4.607035 5.493970 -18.937032 0
M  V30 35 H 5.701412 4.685478 -11.928280 0
M  V30 36 H 5.697952 6.043835 -10.839488 0
M  V30 37 H 11.459080 6.571480 -4.949232 0
M  V30 38 H 9.792849 7.079274 -5.137388 0
M  V30 39 H 4.974697 9.271650 -19.622935 0
M  V30 40 H 4.485203 9.042636 -21.300054 0
M  V30 41 H 3.330985 8.784678 -20.009131 0
M  V30 42 H 5.311622 6.902203 -13.040397 0
M  V30 43 H 12.811378 9.078427 -8.429292 0
M  V30 44 H 6.743096 8.012038 -20.813445 0
M  V30 45 H 6.386022 6.480448 -21.588672 0
M  V30 46 H 2.733372 7.184213 -18.384852 0
M  V30 47 H 3.469414 6.376960 -17.051373 0
M  V30 48 H 3.898841 8.040014 -17.429595 0
M  V30 49 H 8.185049 4.592550 -11.882427 0
M  V30 50 H 7.494634 4.546272 -10.281142 0
M  V30 51 H 12.247766 8.785982 -5.148198 0
M  V30 52 H 10.642076 9.198292 -4.575993 0
M  V30 53 H 11.493790 10.215979 -6.865441 0
M  V30 54 H 9.850900 9.580619 -6.783720 0
M  V30 55 H 8.953142 6.486666 -20.387634 0
M  V30 56 H 8.702195 7.589715 -19.043423 0
M  V30 57 H 8.991418 5.886781 -18.744232 0
M  V30 58 H 5.766902 8.577394 -16.515853 0
M  V30 59 H 5.416522 8.387795 -14.820367 0
M  V30 60 H 7.080764 8.403088 -15.401530 0
M  V30 61 H 4.178234 6.594792 -20.877529 0
M  V30 62 H 6.851839 5.240921 -19.651239 0
M  V30 63 H 7.376229 8.390720 -13.293858 0
M  V30 64 H 6.707168 8.335174 -11.688141 0
M  V30 65 H 9.080574 8.247312 -11.648498 0
M  V30 66 H 9.182244 6.864467 -12.732661 0
M  V30 67 H 11.797038 6.790738 -9.817627 0
M  V30 68 H 11.034392 7.585121 -11.101994 0
M  V30 69 H 10.536157 4.738298 -8.587351 0
M  V30 70 H 8.836291 4.639105 -8.722663 0
M  V30 71 H 9.164201 5.591239 -6.697661 0
M  V30 72 H 8.712369 6.977629 -7.606617 0
M  V30 73 H 11.641877 6.159322 -7.185117 0
M  V30 74 H 10.166806 5.316365 -10.812910 0
M  V30 75 H 4.985150 6.209796 -15.596640 0
M  V30 76 H 7.920244 6.926151 -10.102378 0
M  V30 77 H 6.343876 7.682837 -18.139613 0
M  V30 END ATOM
M  V30 BEGIN BOND
M  V30 1 1 7 4
M  V30 2 1 10 3
M  V30 3 1 11 4
M  V30 4 1 12 5
M  V30 5 1 13 12
M  V30 6 1 15 1
M  V30 7 1 15 3
M  V30 8 1 17 2
M  V30 9 1 17 8 CFG=3
M  V30 10 1 17 13
M  V30 11 1 18 3
M  V30 12 1 18 6
M  V30 13 1 18 9
M  V30 14 1 19 9
M  V30 15 1 19 14
M  V30 16 1 19 15
M  V30 17 1 20 7
M  V30 18 1 21 20
M  V30 19 1 22 2
M  V30 20 1 24 23
M  V30 21 1 25 5
M  V30 22 1 25 17
M  V30 23 1 25 24
M  V30 24 1 26 7
M  V30 25 1 27 11
M  V30 26 1 27 21
M  V30 27 1 28 22
M  V30 28 1 28 23
M  V30 29 1 28 27
M  V30 30 1 29 1
M  V30 31 1 29 16
M  V30 32 1 29 26
M  V30 33 1 30 1
M  V30 34 1 31 1
M  V30 35 1 32 2
M  V30 36 1 33 2
M  V30 37 1 3 34 CFG=3
M  V30 38 1 35 4
M  V30 39 1 36 4
M  V30 40 1 37 5
M  V30 41 1 38 5
M  V30 42 1 39 6
M  V30 43 1 40 6
M  V30 44 1 41 6
M  V30 45 1 7 42 CFG=3
M  V30 46 1 43 8
M  V30 47 1 44 9
M  V30 48 1 45 9
M  V30 49 1 46 10
M  V30 50 1 47 10
M  V30 51 1 48 10
M  V30 52 1 49 11
M  V30 53 1 50 11
M  V30 54 1 51 12
M  V30 55 1 52 12
M  V30 56 1 53 13
M  V30 57 1 54 13
M  V30 58 1 55 14
M  V30 59 1 56 14
M  V30 60 1 57 14
M  V30 61 1 58 16
M  V30 62 1 59 16
M  V30 63 1 60 16
M  V30 64 1 18 61 CFG=3
M  V30 65 1 19 62 CFG=3
M  V30 66 1 63 20
M  V30 67 1 64 20
M  V30 68 1 65 21
M  V30 69 1 66 21
M  V30 70 1 67 22
M  V30 71 1 68 22
M  V30 72 1 69 23
M  V30 73 1 70 23
M  V30 74 1 71 24
M  V30 75 1 72 24
M  V30 76 1 25 73 CFG=1
M  V30 77 1 28 74 CFG=3
M  V30 78 1 29 75 CFG=1
M  V30 79 1 27 76 CFG=1
M  V30 80 1 15 77 CFG=1
M  V30 END BOND
M  V30 END CTAB
M  END
>  <i_epik_Tot_Q>  (1) 
2

>  <i_epik_Tot_abs_Q>  (1) 
2

>  <i_i_glide_confnum>  (1) 
41

>  <i_i_glide_lignum>  (1) 
103

>  <i_i_glide_posenum>  (1) 
66

>  <i_i_glide_rotatable_bonds>  (1) 
6

>  <i_lp_mmshare_version>  (1) 
72125

>  <i_m_source_file_index>  (1) 
65

>  <i_f3d_flags>  (1) 
0

>  <num_sample>  (1) 
100

>  <b_lp_Chiralities_Consistent>  (1) 
1

>  <r_epik_Charging_Adjusted_Penalty>  (1) 
0.010385271147369776

>  <r_epik_Ionization_Penalty>  (1) 
0.010385491156522124

>  <r_epik_Ionization_Penalty_Charging>  (1) 
0.010385271147369776

>  <r_epik_Ionization_Penalty_Neutral>  (1) 
2.2000915234807092e-07

>  <r_epik_State_Penalty>  (1) 
-0

>  <r_glide_ring_energy>  (1) 
0

>  <r_i_docking_score>  (1) 
-6.6113132972621731

>  <r_i_glide_ecoul>  (1) 
-6.9587421932634665

>  <r_i_glide_eff_state_penalty>  (1) 
-0

>  <r_i_glide_einternal>  (1) 
4.3335060776828183

>  <r_i_glide_emodel>  (1) 
-46.483100472155904

>  <r_i_glide_emodel_strain>  (1) 
2.5949345410725755

>  <r_i_glide_energy>  (1) 
-38.406779733753808

>  <r_i_glide_erotb>  (1) 
0.5496323063178965

>  <r_i_glide_esite>  (1) 
-0.10000000000000001

>  <r_i_glide_evdw>  (1) 
-31.44803754049034

>  <r_i_glide_gscore>  (1) 
-6.6113132972621731

>  <r_i_glide_gscore_strain>  (1) 
0

>  <r_i_glide_hbond>  (1) 
-0.19432293412674323

>  <r_i_glide_ligand_efficiency>  (1) 
-0.22797632059524736

>  <r_i_glide_ligand_efficiency_ln>  (1) 
-1.5138230966329222

>  <r_i_glide_ligand_efficiency_sa>  (1) 
-0.70041548562272948

>  <r_i_glide_lipo>  (1) 
-3.0192045570097408

>  <r_i_glide_metal>  (1) 
-0

>  <r_i_glide_rewards>  (1) 
-1.2312049064295469

>  <r_lp_Energy>  (1) 
51.013120000000001

>  <r_lp_tautomer_probability>  (1) 
1

>  <s_epik_cmdline>  (1) 
J2VwaWtfcHl0aG9uJywgJy1waHQnLCAnMS4wJywgJy1waCcsICc3LjQnLCAnLXRuJywgJzgnLCAnLW1hJywgJzUwMCcsICctaW1hZScsICc8aW5maWxlLm1hZT4nLCAnLW9tYWUnLCAnPG91dGZpbGUubWFlPic=

>  <s_epik_input>  (1) 
W0NIM11bQ0BIXTFbQ0gyXVtDQEBIXShbQ0gzXSlOKFtDQEhdMVtDSDNdKVtDSDJdW0NASF0oW0NIM10pU1tDSF0yW0NIMl1bQ0gyXU4oW0NIMl1bQ0gyXTIpW0NAQEhdKFtDSDJdW0NIMl0zKVtDSDJdW0NIMl1bQ0BASF0oW0NAQF0zNFtPSF0pW0NIMl1bQ0gyXVtDSDJdNA==

>  <s_glide_docking_method>  (1) 
confgen

>  <s_i_glide_gridfile>  (1) 
gpcr_drd2_6luq_protein_autoprepared_prepared

>  <s_lp_Force_Field>  (1) 
S-OPLS

>  <s_lp_Variant>  (1) 
DiffSBDD_64-2

>  <s_m_source_file>  (1) 
generated_generic_title2_ligand_DiffSBDD_2026-06-23_prepared.sdf

>  <GenAI_Model>  (1) 
DiffSBDD

>  <Protein>  (1) 
generic_title2

$$$$
DiffSBDD_83
     RDKit          3D

  0  0  0  0  0  0  0  0  0  0999 V3000
M  V30 BEGIN CTAB
M  V30 COUNTS 45 47 0 0 1
M  V30 BEGIN ATOM
M  V30 1 C 5.813850 4.856760 -13.200276 0
M  V30 2 C 12.175439 7.742548 -3.341054 0
M  V30 3 C 10.875781 7.065565 -5.291737 0
M  V30 4 C 9.582471 7.801840 -7.740699 0
M  V30 5 F 12.975071 9.990111 -3.185496 0
M  V30 6 C 11.470010 6.755308 -4.053344 0
M  V30 7 C 11.698557 9.359192 -5.104284 0
M  V30 8 C 7.272715 6.482304 -12.445450 0 CFG=1
M  V30 9 C 12.291452 9.043193 -3.867494 0
M  V30 10 N 6.405726 5.134867 -14.271616 0
M  V30 11 N 8.975401 6.784287 -10.620132 0 CFG=2 CHG=1
M  V30 12 C 6.083439 5.628415 -11.956844 0 CFG=2
M  V30 13 C 10.987424 8.376587 -5.822000 0
M  V30 14 C 6.303172 4.726745 -10.731819 0
M  V30 15 C 9.772076 7.083548 -11.802109 0
M  V30 16 O 10.413057 8.712840 -7.030605 0
M  V30 17 C 10.419284 6.825733 -8.590489 0
M  V30 18 F 12.745414 7.440068 -2.150221 0
M  V30 19 C 6.742282 7.489089 -14.775603 0
M  V30 20 C 9.567070 5.968647 -9.535993 0
M  V30 21 C 8.629349 6.095233 -11.853223 0 CFG=2
M  V30 22 C 7.263265 6.272078 -13.994839 0 CFG=1
M  V30 23 H 5.082223 4.048504 -13.119460 0
M  V30 24 H 10.334304 6.300803 -5.826203 0
M  V30 25 H 8.975331 8.421463 -8.400205 0
M  V30 26 H 8.872455 7.290526 -7.089833 0
M  V30 27 H 11.382327 5.758880 -3.647831 0
M  V30 28 H 11.788003 10.358750 -5.504424 0
M  V30 29 H 7.085740 7.531798 -12.207730 0
M  V30 30 H 5.394592 4.179665 -10.476640 0
M  V30 31 H 7.089208 3.990272 -10.893893 0
M  V30 32 H 6.575442 5.322786 -9.862630 0
M  V30 33 H 10.797148 6.736920 -11.686112 0
M  V30 34 H 9.615892 8.120929 -12.090764 0
M  V30 35 H 10.987091 6.161756 -7.940817 0
M  V30 36 H 11.159734 7.380571 -9.167322 0
M  V30 37 H 7.374723 8.363392 -14.621081 0
M  V30 38 H 6.722277 7.284349 -15.845586 0
M  V30 39 H 5.724564 7.747124 -14.478687 0
M  V30 40 H 8.762762 5.490565 -8.976653 0
M  V30 41 H 10.172839 5.161657 -9.941897 0
M  V30 42 H 8.897136 5.040132 -11.859786 0
M  V30 43 H 8.271538 6.049112 -14.349114 0
M  V30 44 H 8.248822 7.445265 -10.334490 0
M  V30 45 H 5.229419 6.281399 -11.772342 0
M  V30 END ATOM
M  V30 BEGIN BOND
M  V30 1 1 6 2
M  V30 2 2 6 3
M  V30 3 2 9 2
M  V30 4 1 9 5
M  V30 5 1 9 7
M  V30 6 2 10 1
M  V30 7 1 12 1
M  V30 8 1 12 8
M  V30 9 1 13 3
M  V30 10 2 13 7
M  V30 11 1 14 12
M  V30 12 1 15 11
M  V30 13 1 16 4
M  V30 14 1 16 13
M  V30 15 1 17 4
M  V30 16 1 18 2
M  V30 17 1 20 11
M  V30 18 1 20 17
M  V30 19 1 21 8
M  V30 20 1 21 11
M  V30 21 1 21 15
M  V30 22 1 22 8
M  V30 23 1 22 10
M  V30 24 1 22 19
M  V30 25 1 23 1
M  V30 26 1 24 3
M  V30 27 1 25 4
M  V30 28 1 26 4
M  V30 29 1 27 6
M  V30 30 1 28 7
M  V30 31 1 8 29 CFG=3
M  V30 32 1 30 14
M  V30 33 1 31 14
M  V30 34 1 32 14
M  V30 35 1 33 15
M  V30 36 1 34 15
M  V30 37 1 35 17
M  V30 38 1 36 17
M  V30 39 1 37 19
M  V30 40 1 38 19
M  V30 41 1 39 19
M  V30 42 1 40 20
M  V30 43 1 41 20
M  V30 44 1 21 42 CFG=1
M  V30 45 1 22 43 CFG=3
M  V30 46 1 11 44 CFG=1
M  V30 47 1 12 45 CFG=1
M  V30 END BOND
M  V30 END CTAB
M  END
>  <i_epik_Tot_Q>  (1) 
1

>  <i_epik_Tot_abs_Q>  (1) 
1

>  <i_i_glide_confnum>  (1) 
40

>  <i_i_glide_lignum>  (1) 
148

>  <i_i_glide_posenum>  (1) 
315

>  <i_i_glide_rotatable_bonds>  (1) 
6

>  <i_lp_mmshare_version>  (1) 
72125

>  <i_m_source_file_index>  (1) 
84

>  <i_f3d_flags>  (1) 
0

>  <num_sample>  (1) 
100

>  <b_lp_Chiralities_Consistent>  (1) 
1

>  <r_epik_Charging_Adjusted_Penalty>  (1) 
0.43105765877043739

>  <r_epik_Ionization_Penalty>  (1) 
0.36079924242796862

>  <r_epik_Ionization_Penalty_Charging>  (1) 
0.10499320228047652

>  <r_epik_Ionization_Penalty_Neutral>  (1) 
0.25580604014749209

>  <r_epik_State_Penalty>  (1) 
0.32606445648996085

>  <r_glide_ring_energy>  (1) 
0

>  <r_i_docking_score>  (1) 
-6.6064061236837901

>  <r_i_glide_ecoul>  (1) 
-7.6043925772145009

>  <r_i_glide_eff_state_penalty>  (1) 
0.32606445648996085

>  <r_i_glide_einternal>  (1) 
4.4020928661961332

>  <r_i_glide_emodel>  (1) 
-59.630121925085035

>  <r_i_glide_emodel_strain>  (1) 
0.01513203908896088

>  <r_i_glide_energy>  (1) 
-38.876827040507671

>  <r_i_glide_erotb>  (1) 
0.96718860002963114

>  <r_i_glide_esite>  (1) 
-0.10000000000000001

>  <r_i_glide_evdw>  (1) 
-31.27243446329317

>  <r_i_glide_gscore>  (1) 
-6.9324705801737512

>  <r_i_glide_gscore_strain>  (1) 
0

>  <r_i_glide_hbond>  (1) 
-0.20000000000000001

>  <r_i_glide_ligand_efficiency>  (1) 
-0.3002911874401723

>  <r_i_glide_ligand_efficiency_ln>  (1) 
-1.6148466311466958

>  <r_i_glide_ligand_efficiency_sa>  (1) 
-0.84142771785657178

>  <r_i_glide_lipo>  (1) 
-2.0587944834797223

>  <r_i_glide_metal>  (1) 
-0

>  <r_i_glide_rewards>  (1) 
-2.836584086976826

>  <r_lp_Energy>  (1) 
24.635403999999998

>  <r_lp_tautomer_probability>  (1) 
0.99998600000000004

>  <s_epik_Chemistry_Notes>  (1) 
This compound has an imine and may undergo hydrolysis.

>  <s_epik_cmdline>  (1) 
J2VwaWtfcHl0aG9uJywgJy1waHQnLCAnMS4wJywgJy1waCcsICc3LjQnLCAnLXRuJywgJzgnLCAnLW1hJywgJzUwMCcsICctaW1hZScsICc8aW5maWxlLm1hZT4nLCAnLW9tYWUnLCAnPG91dGZpbGUubWFlPic=

>  <s_epik_input>  (1) 
W0NIM11bQ0BASF0xTj1bQ0hdW0NAQEhdKFtDSDNdKVtDQEhdMVtDQEhdMltDSDJdTjJbQ0gyXVtDSDJdW0NIMl1PYyhbY0hdYzNGKVtjSF1bY0hdYzNG

>  <s_glide_docking_method>  (1) 
confgen

>  <s_i_glide_gridfile>  (1) 
gpcr_drd2_6luq_protein_autoprepared_prepared

>  <s_lp_Force_Field>  (1) 
S-OPLS

>  <s_lp_Variant>  (1) 
DiffSBDD_83-2

>  <s_m_source_file>  (1) 
generated_generic_title2_ligand_DiffSBDD_2026-06-23_prepared.sdf

>  <GenAI_Model>  (1) 
DiffSBDD

>  <Protein>  (1) 
generic_title2

$$$$
DiffSBDD_77
     RDKit          3D

  0  0  0  0  0  0  0  0  0  0999 V3000
M  V30 BEGIN CTAB
M  V30 COUNTS 64 67 0 0 1
M  V30 BEGIN ATOM
M  V30 1 N 12.869621 9.415606 -3.645250 0
M  V30 2 C 9.573989 3.875222 -11.652031 0
M  V30 3 C 8.098280 1.387135 -13.410697 0
M  V30 4 C 10.397043 6.207749 -7.864713 0
M  V30 5 C 10.446296 8.752235 -7.306231 0
M  V30 6 C 5.629856 1.160480 -13.401426 0
M  V30 7 C 12.259568 6.620935 -2.326941 0
M  V30 8 N 9.393209 5.966909 -8.915154 0
M  V30 9 C 8.444096 6.165396 -11.232517 0 CFG=1
M  V30 10 C 12.067521 8.438780 -4.214862 0
M  V30 11 C 5.168236 4.391082 -13.585129 0
M  V30 12 C 8.299200 5.054265 -8.565213 0
M  V30 13 C 9.508724 6.537496 -10.154457 0
M  V30 14 N 10.764518 7.422153 -5.619681 0
M  V30 15 C 7.910543 7.402236 -11.951689 0 CFG=2
M  V30 16 C 9.948468 7.306371 -6.893028 0 CFG=2
M  V30 17 C 11.436280 8.535600 -5.398268 0
M  V30 18 C 10.951989 6.541537 -4.564484 0
M  V30 19 C 6.786712 2.134178 -13.693494 0
M  V30 20 C 9.006167 5.151745 -12.272976 0 CFG=2
M  V30 21 C 6.413152 7.442188 -12.179826 0
M  V30 22 C 11.245168 9.343466 -6.428271 0
M  V30 23 C 11.779770 7.165110 -3.640762 0
M  V30 24 O 10.426671 7.308689 -10.444847 0
M  V30 25 C 7.991210 4.787842 -13.386410 0 CFG=1
M  V30 26 S 6.615075 3.715014 -12.754031 0 CHG=1
M  V30 27 C 7.596413 6.062556 -14.182228 0
M  V30 28 C 7.350719 7.318969 -13.356685 0 CFG=2
M  V30 29 H 13.178956 9.332951 -2.685854 0
M  V30 30 H 12.916159 10.337581 -4.048010 0
M  V30 31 H 8.819147 3.190277 -11.295092 0
M  V30 32 H 10.175402 3.344222 -12.385030 0
M  V30 33 H 10.175365 4.079983 -10.781005 0
M  V30 34 H 8.191592 0.509518 -14.050798 0
M  V30 35 H 8.975210 1.994355 -13.585023 0
M  V30 36 H 8.143688 1.033647 -12.385031 0
M  V30 37 H 11.375342 6.448454 -8.280223 0
M  V30 38 H 10.555039 5.281790 -7.315514 0
M  V30 39 H 10.137702 9.190203 -8.241128 0
M  V30 40 H 5.708168 0.268546 -14.026052 0
M  V30 41 H 5.658652 0.822732 -12.364187 0
M  V30 42 H 4.647096 1.590142 -13.585042 0
M  V30 43 H 12.189637 7.410840 -1.583616 0
M  V30 44 H 11.641838 5.782187 -2.004539 0
M  V30 45 H 13.295968 6.289264 -2.386156 0
M  V30 46 H 7.563671 5.729700 -10.775515 0
M  V30 47 H 4.276754 3.800186 -13.380847 0
M  V30 48 H 4.975208 5.415907 -13.295227 0
M  V30 49 H 5.375419 4.390303 -14.650832 0
M  V30 50 H 8.090335 4.341821 -9.349284 0
M  V30 51 H 8.523565 4.478471 -7.669252 0
M  V30 52 H 7.375400 5.590222 -8.372262 0
M  V30 53 H 8.365729 8.351683 -11.671073 0
M  V30 54 H 8.883764 7.286253 -6.656526 0
M  V30 55 H 10.479334 5.589777 -4.558455 0
M  V30 56 H 6.770291 2.386133 -14.753924 0
M  V30 57 H 9.849980 5.645945 -12.760162 0
M  V30 58 H 5.853873 6.588045 -11.812270 0
M  V30 59 H 5.924853 8.390270 -11.984936 0
M  V30 60 H 11.694016 10.321076 -6.509219 0
M  V30 61 H 8.515635 4.165488 -14.111412 0
M  V30 62 H 6.787797 5.925610 -14.893209 0
M  V30 63 H 8.444723 6.292420 -14.824999 0
M  V30 64 H 7.428244 8.221010 -13.960133 0
M  V30 END ATOM
M  V30 BEGIN BOND
M  V30 1 1 8 4
M  V30 2 1 10 1
M  V30 3 1 12 8
M  V30 4 1 13 8
M  V30 5 1 13 9
M  V30 6 1 15 9
M  V30 7 1 16 4
M  V30 8 1 16 5
M  V30 9 1 16 14
M  V30 10 2 17 10
M  V30 11 1 17 14
M  V30 12 1 18 14
M  V30 13 1 19 3
M  V30 14 1 19 6
M  V30 15 1 20 2
M  V30 16 1 20 9
M  V30 17 1 21 15
M  V30 18 2 22 5
M  V30 19 1 22 17
M  V30 20 1 23 7
M  V30 21 1 23 10
M  V30 22 2 23 18
M  V30 23 2 24 13
M  V30 24 1 25 20
M  V30 25 1 26 11 CFG=3
M  V30 26 1 26 19
M  V30 27 1 26 25
M  V30 28 1 27 25
M  V30 29 1 28 15
M  V30 30 1 28 21
M  V30 31 1 28 27
M  V30 32 1 29 1
M  V30 33 1 30 1
M  V30 34 1 31 2
M  V30 35 1 32 2
M  V30 36 1 33 2
M  V30 37 1 34 3
M  V30 38 1 35 3
M  V30 39 1 36 3
M  V30 40 1 37 4
M  V30 41 1 38 4
M  V30 42 1 39 5
M  V30 43 1 40 6
M  V30 44 1 41 6
M  V30 45 1 42 6
M  V30 46 1 43 7
M  V30 47 1 44 7
M  V30 48 1 45 7
M  V30 49 1 9 46 CFG=1
M  V30 50 1 47 11
M  V30 51 1 48 11
M  V30 52 1 49 11
M  V30 53 1 50 12
M  V30 54 1 51 12
M  V30 55 1 52 12
M  V30 56 1 15 53 CFG=3
M  V30 57 1 16 54 CFG=1
M  V30 58 1 55 18
M  V30 59 1 56 19
M  V30 60 1 20 57 CFG=3
M  V30 61 1 58 21
M  V30 62 1 59 21
M  V30 63 1 60 22
M  V30 64 1 25 61 CFG=3
M  V30 65 1 62 27
M  V30 66 1 63 27
M  V30 67 1 28 64 CFG=3
M  V30 END BOND
M  V30 END CTAB
M  END
>  <i_epik_Tot_Q>  (1) 
1

>  <i_epik_Tot_abs_Q>  (1) 
1

>  <i_i_glide_confnum>  (1) 
13

>  <i_i_glide_lignum>  (1) 
128

>  <i_i_glide_posenum>  (1) 
123

>  <i_i_glide_rotatable_bonds>  (1) 
6

>  <i_lp_mmshare_version>  (1) 
72125

>  <i_m_source_file_index>  (1) 
78

>  <i_f3d_flags>  (1) 
0

>  <num_sample>  (1) 
100

>  <b_lp_Chiralities_Consistent>  (1) 
1

>  <r_epik_Charging_Adjusted_Penalty>  (1) 
0

>  <r_epik_Ionization_Penalty>  (1) 
0.00035710652682445374

>  <r_epik_Ionization_Penalty_Charging>  (1) 
0

>  <r_epik_Ionization_Penalty_Neutral>  (1) 
0.00035710652682445374

>  <r_epik_State_Penalty>  (1) 
-0

>  <r_glide_ring_energy>  (1) 
0

>  <r_i_docking_score>  (1) 
-6.6031559232196644

>  <r_i_glide_ecoul>  (1) 
-3.5511921752674431

>  <r_i_glide_eff_state_penalty>  (1) 
-0

>  <r_i_glide_einternal>  (1) 
4.7758404453475833

>  <r_i_glide_emodel>  (1) 
-44.582549867490727

>  <r_i_glide_emodel_strain>  (1) 
0.17572431146814438

>  <r_i_glide_energy>  (1) 
-35.419215143748318

>  <r_i_glide_erotb>  (1) 
0.60532363573914161

>  <r_i_glide_esite>  (1) 
-0.16190888786568375

>  <r_i_glide_evdw>  (1) 
-31.868022968480876

>  <r_i_glide_gscore>  (1) 
-6.6031559232196644

>  <r_i_glide_gscore_strain>  (1) 
0

>  <r_i_glide_hbond>  (1) 
-0.0098832730156403984

>  <r_i_glide_ligand_efficiency>  (1) 
-0.23582699725784514

>  <r_i_glide_ligand_efficiency_ln>  (1) 
-1.5242022641614899

>  <r_i_glide_ligand_efficiency_sa>  (1) 
-0.71610965914372482

>  <r_i_glide_lipo>  (1) 
-3.2735664651074967

>  <r_i_glide_metal>  (1) 
-0

>  <r_i_glide_rewards>  (1) 
-1.6370409582558245

>  <r_lp_Energy>  (1) 
24.865627999999997

>  <r_lp_tautomer_probability>  (1) 
1

>  <s_epik_cmdline>  (1) 
J2VwaWtfcHl0aG9uJywgJy1waHQnLCAnMS4wJywgJy1waCcsICc3LjQnLCAnLXRuJywgJzgnLCAnLW1hJywgJzUwMCcsICctaW1hZScsICc8aW5maWxlLm1hZT4nLCAnLW9tYWUnLCAnPG91dGZpbGUubWFlPic=

>  <s_epik_input>  (1) 
W0NIM11jKFtjSF0xKWMoW05IMl0pYyhuMTIpW0NIXT1bQ0hdW0NASF0yW0NIMl1OKFtDSDNdKUMoPU8pW0NAQEhdM1tDQEBIXShbQ0gzXSlbQ0BASF0oW1MrXShbQ0gzXSlbQ0hdKFtDSDNdKVtDSDNdKVtDSDJdW0NASF0oW0NIXTM0KVtDSDJdNA==

>  <s_glide_docking_method>  (1) 
confgen

>  <s_i_glide_gridfile>  (1) 
gpcr_drd2_6luq_protein_autoprepared_prepared

>  <s_lp_Force_Field>  (1) 
S-OPLS

>  <s_lp_Variant>  (1) 
DiffSBDD_77-1

>  <s_m_source_file>  (1) 
generated_generic_title2_ligand_DiffSBDD_2026-06-23_prepared.sdf

>  <GenAI_Model>  (1) 
DiffSBDD

>  <Protein>  (1) 
generic_title2

$$$$
DiffSBDD_52
     RDKit          3D

  0  0  0  0  0  0  0  0  0  0999 V3000
M  V30 BEGIN CTAB
M  V30 COUNTS 50 53 0 0 1
M  V30 BEGIN ATOM
M  V30 1 C 12.197202 9.093197 -3.082769 0
M  V30 2 F 12.575381 7.193265 -1.586751 0
M  V30 3 C 9.177408 5.616928 -11.044975 0 CFG=1
M  V30 4 C 7.793163 7.745007 -12.570474 0
M  V30 5 C 9.194929 7.775726 -12.007038 0 CFG=2
M  V30 6 C 11.775435 6.694919 -3.687539 0
M  V30 7 C 11.050282 8.265664 -7.822490 0
M  V30 8 C 7.911454 5.677041 -14.155323 0
M  V30 9 C 12.175377 7.612058 -2.793411 0
M  V30 10 N 8.975421 7.044515 -10.760373 0 CFG=2 CHG=1
M  V30 11 C 11.369821 8.538943 -5.448480 0 CFG=2
M  V30 12 O 9.190037 5.061831 -9.861715 0 CHG=-1
M  V30 13 C 7.702531 4.171926 -13.996475 0
M  V30 14 O 11.829815 8.789327 -6.766912 0
M  V30 15 C 12.342889 9.354391 -4.580700 0
M  V30 16 C 7.384604 6.261122 -12.843773 0 CFG=1
M  V30 17 C 7.929111 3.876479 -12.506289 0
M  V30 18 C 11.789755 8.631014 -9.118435 0
M  V30 19 C 11.321667 7.025865 -5.098650 0
M  V30 20 C 9.851983 8.179992 -10.698371 0 CFG=1
M  V30 21 C 11.284268 7.838274 -10.325793 0
M  V30 22 C 7.844429 5.223830 -11.763412 0 CFG=1
M  V30 23 H 11.273730 9.536689 -2.714693 0
M  V30 24 H 13.006014 9.564380 -2.530752 0
M  V30 25 H 10.006554 5.461292 -11.738673 0
M  V30 26 H 7.097609 8.228577 -11.880601 0
M  V30 27 H 7.775065 8.321244 -13.495295 0
M  V30 28 H 9.929712 7.355969 -12.691704 0
M  V30 29 H 11.781460 5.650084 -3.416489 0
M  V30 30 H 10.959653 7.181443 -7.738671 0
M  V30 31 H 10.043437 8.685267 -7.800551 0
M  V30 32 H 7.404384 6.081409 -15.032162 0
M  V30 33 H 8.975332 5.878227 -14.265274 0
M  V30 34 H 10.370390 8.958848 -5.333199 0
M  V30 35 H 6.675806 3.920603 -14.265605 0
M  V30 36 H 8.361966 3.590220 -14.640810 0
M  V30 37 H 12.154440 10.395444 -4.786301 0
M  V30 38 H 13.378558 9.190352 -4.877446 0
M  V30 39 H 6.294968 6.223738 -12.901283 0
M  V30 40 H 7.166957 3.190289 -12.140239 0
M  V30 41 H 8.896257 3.397079 -12.346379 0
M  V30 42 H 11.726181 9.703117 -9.306535 0
M  V30 43 H 12.850371 8.411308 -8.990718 0
M  V30 44 H 11.955992 6.448773 -5.772019 0
M  V30 45 H 10.310446 6.642326 -5.244108 0
M  V30 46 H 9.359059 8.937808 -10.092457 0
M  V30 47 H 11.936100 7.990208 -11.184927 0
M  V30 48 H 11.363816 6.790232 -10.072953 0
M  V30 49 H 7.048191 5.170678 -11.015246 0
M  V30 50 H 8.081036 7.251161 -10.299354 0
M  V30 END ATOM
M  V30 BEGIN BOND
M  V30 1 1 5 4
M  V30 2 1 9 1
M  V30 3 1 9 2
M  V30 4 2 9 6
M  V30 5 1 10 3
M  V30 6 1 10 5
M  V30 7 1 12 3
M  V30 8 1 13 8
M  V30 9 1 14 7
M  V30 10 1 14 11
M  V30 11 1 15 1
M  V30 12 1 15 11
M  V30 13 1 16 4
M  V30 14 1 16 8
M  V30 15 1 17 13
M  V30 16 1 18 7
M  V30 17 1 19 6
M  V30 18 1 19 11
M  V30 19 1 20 5
M  V30 20 1 20 10
M  V30 21 1 21 18
M  V30 22 1 21 20
M  V30 23 1 22 3
M  V30 24 1 22 16
M  V30 25 1 22 17
M  V30 26 1 23 1
M  V30 27 1 24 1
M  V30 28 1 3 25 CFG=3
M  V30 29 1 26 4
M  V30 30 1 27 4
M  V30 31 1 5 28 CFG=3
M  V30 32 1 29 6
M  V30 33 1 30 7
M  V30 34 1 31 7
M  V30 35 1 32 8
M  V30 36 1 33 8
M  V30 37 1 11 34 CFG=3
M  V30 38 1 35 13
M  V30 39 1 36 13
M  V30 40 1 37 15
M  V30 41 1 38 15
M  V30 42 1 16 39 CFG=3
M  V30 43 1 40 17
M  V30 44 1 41 17
M  V30 45 1 42 18
M  V30 46 1 43 18
M  V30 47 1 44 19
M  V30 48 1 45 19
M  V30 49 1 20 46 CFG=1
M  V30 50 1 47 21
M  V30 51 1 48 21
M  V30 52 1 22 49 CFG=1
M  V30 53 1 10 50 CFG=1
M  V30 END BOND
M  V30 END CTAB
M  END
>  <i_epik_Tot_Q>  (1) 
0

>  <i_epik_Tot_abs_Q>  (1) 
2

>  <i_i_glide_confnum>  (1) 
33

>  <i_i_glide_lignum>  (1) 
83

>  <i_i_glide_posenum>  (1) 
230

>  <i_i_glide_rotatable_bonds>  (1) 
5

>  <i_lp_mmshare_version>  (1) 
72125

>  <i_m_source_file_index>  (1) 
53

>  <i_f3d_flags>  (1) 
0

>  <num_sample>  (1) 
100

>  <b_lp_Chiralities_Consistent>  (1) 
1

>  <r_epik_Charging_Adjusted_Penalty>  (1) 
0.66076975529779935

>  <r_epik_Ionization_Penalty>  (1) 
0.32551799850713803

>  <r_epik_Ionization_Penalty_Charging>  (1) 
0.32551799850601437

>  <r_epik_Ionization_Penalty_Neutral>  (1) 
1.1236391675704673e-12

>  <r_epik_State_Penalty>  (1) 
0.33525175679178498

>  <r_glide_ring_energy>  (1) 
0

>  <r_i_docking_score>  (1) 
-6.6026504975388614

>  <r_i_glide_ecoul>  (1) 
-4.9931754730891074

>  <r_i_glide_eff_state_penalty>  (1) 
0.33525175679178498

>  <r_i_glide_einternal>  (1) 
8.3703012775132173

>  <r_i_glide_emodel>  (1) 
-41.508724556375583

>  <r_i_glide_emodel_strain>  (1) 
0.76737783769841883

>  <r_i_glide_energy>  (1) 
-32.547032112968978

>  <r_i_glide_erotb>  (1) 
0.58016400484968

>  <r_i_glide_esite>  (1) 
-0.10133619652317052

>  <r_i_glide_evdw>  (1) 
-27.553856639879871

>  <r_i_glide_gscore>  (1) 
-6.9379022543306466

>  <r_i_glide_gscore_strain>  (1) 
0

>  <r_i_glide_hbond>  (1) 
-0.20000000000000001

>  <r_i_glide_ligand_efficiency>  (1) 
-0.30012047716085732

>  <r_i_glide_ligand_efficiency_ln>  (1) 
-1.6139286191270832

>  <r_i_glide_ligand_efficiency_sa>  (1) 
-0.84094938093978422

>  <r_i_glide_lipo>  (1) 
-2.8166269686654899

>  <r_i_glide_metal>  (1) 
-0

>  <r_i_glide_rewards>  (1) 
-2.2734339410343058

>  <r_lp_Energy>  (1) 
38.746100999999996

>  <s_epik_Chemistry_Notes>  (1) 
This compound contains an acetal/aminal-like group ( X-CH(R)-Y where X, Y are N, S, or O) that may be acid/base labile, releasing an aldehyde.

>  <s_epik_cmdline>  (1) 
J2VwaWtfcHl0aG9uJywgJy1waHQnLCAnMS4wJywgJy1waCcsICc3LjQnLCAnLXRuJywgJzgnLCAnLW1hJywgJzUwMCcsICctaW1hZScsICc8aW5maWxlLm1hZT4nLCAnLW9tYWUnLCAnPG91dGZpbGUubWFlPic=

>  <s_epik_input>  (1) 
RkMxPVtDSF1bQ0gyXVtDQEBIXShbQ0gyXVtDSDJdMSlPW0NIMl1bQ0gyXVtDSDJdW0NAQEhdMk4oW0NASF0yMylbQ0BASF0oW09IXSlbQ0BIXTRbQ0BASF0oW0NIMl0zKVtDSDJdW0NIMl1bQ0gyXTQ=

>  <s_glide_docking_method>  (1) 
confgen

>  <s_i_glide_gridfile>  (1) 
gpcr_drd2_6luq_protein_autoprepared_prepared

>  <s_lp_Force_Field>  (1) 
S-OPLS

>  <s_lp_Variant>  (1) 
DiffSBDD_52-2

>  <s_m_source_file>  (1) 
generated_generic_title2_ligand_DiffSBDD_2026-06-23_prepared.sdf

>  <GenAI_Model>  (1) 
DiffSBDD

>  <Protein>  (1) 
generic_title2

$$$$
DiffSBDD_72
     RDKit          3D

  0  0  0  0  0  0  0  0  0  0999 V3000
M  V30 BEGIN CTAB
M  V30 COUNTS 47 49 0 0 1
M  V30 BEGIN ATOM
M  V30 1 C 12.175385 7.467879 -3.147223 0
M  V30 2 C 12.107047 8.115508 -7.560590 0
M  V30 3 C 9.982003 6.774498 -6.770104 0
M  V30 4 C 11.375490 8.216933 -5.167921 0
M  V30 5 C 12.551991 6.486489 -2.085609 0
M  V30 6 C 11.530131 9.418364 -4.509486 0
M  V30 7 C 8.017960 2.645972 -13.279112 0
M  V30 8 C 7.528513 3.855178 -14.074487 0
M  V30 9 C 10.905643 8.012838 -6.592048 0 CFG=1
M  V30 10 N 11.775381 7.124107 -4.371902 0
M  V30 11 C 9.569899 5.210286 -11.181129 0
M  V30 12 C 9.803274 6.981756 -9.358538 0 CFG=2
M  V30 13 C 10.002021 6.061512 -8.138099 0
M  V30 14 C 8.463186 4.428969 -11.923167 0 CFG=1
M  V30 15 C 7.945547 5.050452 -13.225575 0
M  V30 16 S 12.175433 9.190149 -2.899044 0
M  V30 17 O 8.975681 3.190184 -12.385017 0
M  V30 18 O 8.575412 7.321133 -11.307562 0
M  V30 19 N 9.008761 6.297966 -10.388196 0
M  V30 20 C 11.130043 7.571529 -9.892379 0
M  V30 21 C 11.762312 8.620296 -8.973357 0
M  V30 22 H 12.672202 7.190213 -7.585046 0
M  V30 23 H 12.799515 8.854813 -7.156375 0
M  V30 24 H 10.236708 6.004086 -6.043833 0
M  V30 25 H 8.958513 7.061513 -6.521710 0
M  V30 26 H 11.666330 5.944490 -1.752941 0
M  V30 27 H 13.296004 5.769190 -2.421918 0
M  V30 28 H 12.975375 7.016179 -1.232686 0
M  V30 29 H 11.322449 10.411652 -4.876336 0
M  V30 30 H 8.454631 1.870492 -13.908151 0
M  V30 31 H 7.197464 2.200479 -12.715185 0
M  V30 32 H 8.008306 3.897843 -15.052614 0
M  V30 33 H 6.449949 3.814022 -14.230878 0
M  V30 34 H 10.272912 8.870004 -6.828154 0
M  V30 35 H 10.339059 5.567116 -11.868488 0
M  V30 36 H 10.038536 4.512695 -10.489705 0
M  V30 37 H 9.182254 7.813252 -9.021891 0
M  V30 38 H 9.207949 5.312454 -8.111646 0
M  V30 39 H 10.928274 5.499627 -8.240444 0
M  V30 40 H 7.631082 4.221454 -11.247259 0
M  V30 41 H 7.121476 5.741404 -13.048495 0
M  V30 42 H 8.741422 5.601495 -13.727798 0
M  V30 43 H 7.768074 7.590248 -10.862709 0
M  V30 44 H 11.862726 6.790254 -10.062961 0
M  V30 45 H 10.969426 8.039805 -10.862154 0
M  V30 46 H 12.681623 8.963645 -9.449862 0
M  V30 47 H 11.122156 9.499518 -8.920775 0
M  V30 END ATOM
M  V30 BEGIN BOND
M  V30 1 1 5 1
M  V30 2 2 6 4
M  V30 3 1 8 7
M  V30 4 1 9 2
M  V30 5 1 9 3
M  V30 6 1 9 4
M  V30 7 2 10 1
M  V30 8 1 10 4
M  V30 9 1 13 3
M  V30 10 1 13 12
M  V30 11 1 14 11
M  V30 12 1 15 8
M  V30 13 1 15 14
M  V30 14 1 16 1
M  V30 15 1 16 6
M  V30 16 1 17 7
M  V30 17 1 17 14
M  V30 18 1 19 11
M  V30 19 1 19 12
M  V30 20 1 19 18
M  V30 21 1 20 12
M  V30 22 1 21 2
M  V30 23 1 21 20
M  V30 24 1 22 2
M  V30 25 1 23 2
M  V30 26 1 24 3
M  V30 27 1 25 3
M  V30 28 1 26 5
M  V30 29 1 27 5
M  V30 30 1 28 5
M  V30 31 1 29 6
M  V30 32 1 30 7
M  V30 33 1 31 7
M  V30 34 1 32 8
M  V30 35 1 33 8
M  V30 36 1 9 34 CFG=3
M  V30 37 1 35 11
M  V30 38 1 36 11
M  V30 39 1 12 37 CFG=1
M  V30 40 1 38 13
M  V30 41 1 39 13
M  V30 42 1 14 40 CFG=1
M  V30 43 1 41 15
M  V30 44 1 42 15
M  V30 45 1 43 18
M  V30 46 1 44 20
M  V30 47 1 45 20
M  V30 48 1 46 21
M  V30 49 1 47 21
M  V30 END BOND
M  V30 END CTAB
M  END
>  <i_epik_Tot_Q>  (1) 
0

>  <i_epik_Tot_abs_Q>  (1) 
0

>  <i_i_glide_confnum>  (1) 
1

>  <i_i_glide_lignum>  (1) 
117

>  <i_i_glide_posenum>  (1) 
106

>  <i_i_glide_rotatable_bonds>  (1) 
5

>  <i_lp_mmshare_version>  (1) 
72125

>  <i_m_source_file_index>  (1) 
73

>  <i_f3d_flags>  (1) 
0

>  <num_sample>  (1) 
100

>  <b_lp_Chiralities_Consistent>  (1) 
1

>  <r_epik_Charging_Adjusted_Penalty>  (1) 
0.31702420014140181

>  <r_epik_Ionization_Penalty>  (1) 
0.0051686073058934195

>  <r_epik_Ionization_Penalty_Charging>  (1) 
0

>  <r_epik_Ionization_Penalty_Neutral>  (1) 
0.0051686073058934195

>  <r_epik_State_Penalty>  (1) 
0.31702420014140181

>  <r_glide_ring_energy>  (1) 
0

>  <r_i_docking_score>  (1) 
-6.6009782503621173

>  <r_i_glide_ecoul>  (1) 
-3.4521112004071108

>  <r_i_glide_eff_state_penalty>  (1) 
0.31702420014140181

>  <r_i_glide_einternal>  (1) 
3.2077695398663404

>  <r_i_glide_emodel>  (1) 
-49.308958502609542

>  <r_i_glide_emodel_strain>  (1) 
0.88866886332916906

>  <r_i_glide_energy>  (1) 
-34.518917505054475

>  <r_i_glide_erotb>  (1) 
0.76903323708162985

>  <r_i_glide_esite>  (1) 
-0.19557792978607177

>  <r_i_glide_evdw>  (1) 
-31.066806304647361

>  <r_i_glide_gscore>  (1) 
-6.9180024505035194

>  <r_i_glide_gscore_strain>  (1) 
0

>  <r_i_glide_hbond>  (1) 
-0.15966159502690208

>  <r_i_glide_ligand_efficiency>  (1) 
-0.31433229763629128

>  <r_i_glide_ligand_efficiency_ln>  (1) 
-1.6320785338695438

>  <r_i_glide_ligand_efficiency_sa>  (1) 
-0.86721897536619041

>  <r_i_glide_lipo>  (1) 
-3.0683333947514675

>  <r_i_glide_metal>  (1) 
-0

>  <r_i_glide_rewards>  (1) 
-2.192305772727273

>  <r_lp_Energy>  (1) 
12.292861

>  <s_epik_Chemistry_Notes>  (1) 
This compound has a N-S or N-O group and may undergo hydrolysis at high or low pH.

>  <s_epik_cmdline>  (1) 
J2VwaWtfcHl0aG9uJywgJy1waHQnLCAnMS4wJywgJy1waCcsICc3LjQnLCAnLXRuJywgJzgnLCAnLW1hJywgJzUwMCcsICctaW1hZScsICc8aW5maWxlLm1hZT4nLCAnLW9tYWUnLCAnPG91dGZpbGUubWFlPic=

>  <s_epik_input>  (1) 
W0NIM11jMW5jKFtjSF1zMSlbQ0BIXTJbQ0gyXVtDSDJdW0NIMl1bQ0BIXShbQ0gyXVtDSDJdMilOKFtPSF0pW0NIMl1bQ0BIXTNbQ0gyXVtDSDJdW0NIMl1PMw==

>  <s_glide_docking_method>  (1) 
confgen

>  <s_i_glide_gridfile>  (1) 
gpcr_drd2_6luq_protein_autoprepared_prepared

>  <s_lp_Force_Field>  (1) 
S-OPLS

>  <s_lp_Variant>  (1) 
DiffSBDD_72-1

>  <s_m_source_file>  (1) 
generated_generic_title2_ligand_DiffSBDD_2026-06-23_prepared.sdf

>  <GenAI_Model>  (1) 
DiffSBDD

>  <Protein>  (1) 
generic_title2

$$$$
DiffSBDD_76
     RDKit          3D

  0  0  0  0  0  0  0  0  0  0999 V3000
M  V30 BEGIN CTAB
M  V30 COUNTS 54 57 0 0 1
M  V30 BEGIN ATOM
M  V30 1 N 7.749433 6.611258 -11.702313 0 CHG=1
M  V30 2 N 11.775410 7.472740 -4.053737 0
M  V30 3 C 6.920119 5.636290 -13.905017 0 CFG=2
M  V30 4 C 11.560566 7.500835 -5.487188 0
M  V30 5 F 8.384543 4.790222 -9.598469 0
M  V30 6 C 12.275136 8.373625 -3.239073 0
M  V30 7 C 6.546599 6.000236 -15.357363 0
M  V30 8 C 7.240355 6.901412 -13.058954 0
M  V30 9 C 10.376296 8.188624 -8.258924 0
M  V30 10 C 9.221748 6.652047 -11.551348 0
M  V30 11 C 5.891452 6.722474 -18.013014 0
M  V30 12 N 11.454213 6.390225 -3.348286 0
M  V30 13 C 6.654235 5.566757 -17.774053 0
M  V30 14 C 5.447630 7.510078 -16.937306 0
M  V30 15 C 7.743222 3.928790 -16.222299 0
M  V30 16 N 12.678702 9.590225 -3.741163 0
M  V30 17 C 7.819229 3.450176 -14.781499 0
M  V30 18 C 5.775413 7.157988 -15.616466 0
M  V30 19 C 9.902937 7.235140 -7.334901 0
M  V30 20 C 8.066806 4.610258 -13.836091 0
M  V30 21 O 8.266002 3.271296 -17.120497 0
M  V30 22 C 9.247344 6.077513 -7.791284 0
M  V30 23 N 12.348190 8.021483 -1.978215 0
M  V30 24 C 10.089016 7.458068 -5.857621 0
M  V30 25 C 10.175512 7.990362 -9.635161 0
M  V30 26 C 9.043152 5.883540 -9.162621 0
M  V30 27 C 9.499047 6.840672 -10.086548 0
M  V30 28 C 11.820661 6.748245 -2.106152 0
M  V30 29 C 6.975409 5.188087 -16.451811 0
M  V30 30 H 7.411009 5.714154 -11.383733 0
M  V30 31 H 6.034321 5.163195 -13.477707 0
M  V30 32 H 12.039569 8.375470 -5.930843 0
M  V30 33 H 12.031905 6.607552 -5.903043 0
M  V30 34 H 6.327560 7.474605 -12.901283 0
M  V30 35 H 7.928402 7.563128 -13.585805 0
M  V30 36 H 10.882512 9.076635 -7.910116 0
M  V30 37 H 9.646927 7.483002 -12.115937 0
M  V30 38 H 9.692640 5.734435 -11.902302 0
M  V30 39 H 5.640225 7.002555 -19.025455 0
M  V30 40 H 6.980979 4.958543 -18.605671 0
M  V30 41 H 4.858123 8.390227 -17.126154 0
M  V30 42 H 13.069380 10.299018 -3.135131 0
M  V30 43 H 12.603766 9.811375 -4.722134 0
M  V30 44 H 6.870595 2.972059 -14.535668 0
M  V30 45 H 8.575409 2.677623 -14.680829 0
M  V30 46 H 5.433267 7.777655 -14.803331 0
M  V30 47 H 9.015599 5.082495 -14.097999 0
M  V30 48 H 8.174795 4.214034 -12.826265 0
M  V30 49 H 8.883535 5.347934 -7.087435 0
M  V30 50 H 9.592104 6.654172 -5.314448 0
M  V30 51 H 9.597800 8.390224 -5.585025 0
M  V30 52 H 10.524271 8.727843 -10.341943 0
M  V30 53 H 11.703343 6.075236 -1.269283 0
M  V30 54 H 7.375451 7.292641 -11.035758 0
M  V30 END ATOM
M  V30 BEGIN BOND
M  V30 1 1 4 2
M  V30 2 1 6 2
M  V30 3 1 7 3
M  V30 4 1 8 1
M  V30 5 1 8 3
M  V30 6 1 10 1
M  V30 7 1 12 2
M  V30 8 1 13 11
M  V30 9 2 14 11
M  V30 10 1 16 6
M  V30 11 1 17 15
M  V30 12 2 18 7
M  V30 13 1 18 14
M  V30 14 1 19 9
M  V30 15 1 20 3
M  V30 16 1 20 17
M  V30 17 2 21 15
M  V30 18 2 22 19
M  V30 19 2 23 6
M  V30 20 1 24 4
M  V30 21 1 24 19
M  V30 22 2 25 9
M  V30 23 1 26 5
M  V30 24 1 26 22
M  V30 25 1 27 10
M  V30 26 1 27 25
M  V30 27 2 27 26
M  V30 28 2 28 12
M  V30 29 1 28 23
M  V30 30 1 29 7
M  V30 31 2 29 13
M  V30 32 1 29 15
M  V30 33 1 30 1
M  V30 34 1 3 31 CFG=1
M  V30 35 1 32 4
M  V30 36 1 33 4
M  V30 37 1 34 8
M  V30 38 1 35 8
M  V30 39 1 36 9
M  V30 40 1 37 10
M  V30 41 1 38 10
M  V30 42 1 39 11
M  V30 43 1 40 13
M  V30 44 1 41 14
M  V30 45 1 42 16
M  V30 46 1 43 16
M  V30 47 1 44 17
M  V30 48 1 45 17
M  V30 49 1 46 18
M  V30 50 1 47 20
M  V30 51 1 48 20
M  V30 52 1 49 22
M  V30 53 1 50 24
M  V30 54 1 51 24
M  V30 55 1 52 25
M  V30 56 1 53 28
M  V30 57 1 54 1
M  V30 END BOND
M  V30 END CTAB
M  END
>  <i_epik_Tot_Q>  (1) 
1

>  <i_epik_Tot_abs_Q>  (1) 
1

>  <i_i_glide_confnum>  (1) 
74

>  <i_i_glide_lignum>  (1) 
124

>  <i_i_glide_posenum>  (1) 
377

>  <i_i_glide_rotatable_bonds>  (1) 
7

>  <i_lp_mmshare_version>  (1) 
72125

>  <i_m_source_file_index>  (1) 
77

>  <i_f3d_flags>  (1) 
0

>  <num_sample>  (1) 
100

>  <b_lp_Chiralities_Consistent>  (1) 
1

>  <r_epik_Charging_Adjusted_Penalty>  (1) 
0.13114515656656739

>  <r_epik_Ionization_Penalty>  (1) 
0.066343571056588849

>  <r_epik_Ionization_Penalty_Charging>  (1) 
0.065572578283283764

>  <r_epik_Ionization_Penalty_Neutral>  (1) 
0.00077099277330508725

>  <r_epik_State_Penalty>  (1) 
0.065572578283283625

>  <r_glide_ring_energy>  (1) 
0

>  <r_i_docking_score>  (1) 
-6.598325882443965

>  <r_i_glide_ecoul>  (1) 
-3.6274356233185863

>  <r_i_glide_eff_state_penalty>  (1) 
0.065572578283283625

>  <r_i_glide_einternal>  (1) 
11.059399375784768

>  <r_i_glide_emodel>  (1) 
-54.547967017069098

>  <r_i_glide_emodel_strain>  (1) 
0.54425498593728605

>  <r_i_glide_energy>  (1) 
-39.924437492249226

>  <r_i_glide_erotb>  (1) 
0.75361898126616078

>  <r_i_glide_esite>  (1) 
-0.14240223071806335

>  <r_i_glide_evdw>  (1) 
-36.297001868930636

>  <r_i_glide_gscore>  (1) 
-6.6638984607272489

>  <r_i_glide_gscore_strain>  (1) 
0

>  <r_i_glide_hbond>  (1) 
-0.38968419224452733

>  <r_i_glide_ligand_efficiency>  (1) 
-0.22752847870496432

>  <r_i_glide_ligand_efficiency_ln>  (1) 
-1.5108493079719767

>  <r_i_glide_ligand_efficiency_sa>  (1) 
-0.69903957344796597

>  <r_i_glide_lipo>  (1) 
-1.7548176470499248

>  <r_i_glide_metal>  (1) 
-0

>  <r_i_glide_rewards>  (1) 
-2.7716479350365741

>  <r_lp_Energy>  (1) 
27.364193

>  <r_lp_tautomer_probability>  (1) 
0.99994999147066566

>  <s_epik_cmdline>  (1) 
J2VwaWtfcHl0aG9uJywgJy1waHQnLCAnMS4wJywgJy1waCcsICc3LjQnLCAnLXRuJywgJzgnLCAnLW1hJywgJzUwMCcsICctaW1hZScsICc8aW5maWxlLm1hZT4nLCAnLW9tYWUnLCAnPG91dGZpbGUubWFlPic=

>  <s_epik_input>  (1) 
W2NIXTFbY0hdW2NIXVtjSF1jKGMxMilDKD1PKVtDSDJdW0NIMl1bQ0BIXTJbQ0gyXVtOSF1bQ0gyXWMoYyhGKVtjSF0zKVtjSF1bY0hdYzNbQ0gyXVtDSDJdbjRjKFtOSDJdKW5bY0hdbjQ=

>  <s_glide_docking_method>  (1) 
confgen

>  <s_i_glide_gridfile>  (1) 
gpcr_drd2_6luq_protein_autoprepared_prepared

>  <s_lp_Force_Field>  (1) 
S-OPLS

>  <s_lp_Variant>  (1) 
DiffSBDD_76-1

>  <s_m_source_file>  (1) 
generated_generic_title2_ligand_DiffSBDD_2026-06-23_prepared.sdf

>  <GenAI_Model>  (1) 
DiffSBDD

>  <Protein>  (1) 
generic_title2

$$$$
DiffSBDD_66
     RDKit          3D

  0  0  0  0  0  0  0  0  0  0999 V3000
M  V30 BEGIN CTAB
M  V30 COUNTS 37 39 0 0 1
M  V30 BEGIN ATOM
M  V30 1 F 6.175407 8.317545 -16.385005 0
M  V30 2 C 7.199320 5.685001 -17.703827 0
M  V30 3 N 9.358412 7.471710 -11.912173 0
M  V30 4 C 5.853388 6.030877 -16.963160 0 CFG=2
M  V30 5 C 5.393576 7.490737 -17.078478 0
M  V30 6 C 8.595784 4.826255 -14.614229 0
M  V30 7 N 8.240078 5.247624 -17.060542 0
M  V30 8 F 5.375401 7.844879 -18.363272 0
M  V30 9 C 7.164414 6.890067 -12.623168 0 CFG=1
M  V30 10 C 5.734173 5.741897 -14.385019 0
M  V30 11 O 9.775405 7.214273 -9.558691 0
M  V30 12 C 6.618575 5.535140 -13.131351 0 CFG=1
M  V30 13 C 10.425355 6.494985 -11.827548 0 CFG=2
M  V30 14 C 7.710063 4.466511 -13.408453 0
M  V30 15 F 4.153969 7.590227 -16.611407 0
M  V30 16 C 10.325785 7.590232 -10.809320 0 CFG=1
M  V30 17 C 6.514131 5.656734 -15.691833 0
M  V30 18 O 6.113326 7.590222 -11.985025 0
M  V30 19 N 8.175397 6.756161 -11.585024 0
M  V30 20 O 11.412288 6.790227 -12.785025 0
M  V30 21 C 7.748990 5.258687 -15.784219 0
M  V30 22 H 7.198610 5.835085 -18.786639 0
M  V30 23 H 5.078497 5.348095 -17.295001 0
M  V30 24 H 9.211243 3.990226 -14.921498 0
M  V30 25 H 9.279300 5.630117 -14.356331 0
M  V30 26 H 7.548173 7.482088 -13.456901 0
M  V30 27 H 4.975398 4.964614 -14.385053 0
M  V30 28 H 5.210336 6.694752 -14.327207 0
M  V30 29 H 8.837574 7.379951 -9.575063 0
M  V30 30 H 5.985924 5.131442 -12.338248 0
M  V30 31 H 10.237986 5.448308 -11.588965 0
M  V30 32 H 8.324396 4.285367 -12.526847 0
M  V30 33 H 7.215776 3.516176 -13.614862 0
M  V30 34 H 11.056153 8.395065 -10.785023 0
M  V30 35 H 6.316496 7.675553 -11.051950 0
M  V30 36 H 7.796853 7.057522 -10.683641 0
M  V30 37 H 11.449673 6.065144 -13.394428 0
M  V30 END ATOM
M  V30 BEGIN BOND
M  V30 1 1 4 2
M  V30 2 1 5 1
M  V30 3 1 5 4
M  V30 4 2 7 2
M  V30 5 1 8 5
M  V30 6 1 12 9
M  V30 7 1 12 10
M  V30 8 1 13 3
M  V30 9 1 14 6
M  V30 10 1 14 12
M  V30 11 1 15 5
M  V30 12 1 16 3
M  V30 13 1 16 11
M  V30 14 1 16 13
M  V30 15 1 17 4
M  V30 16 1 17 10
M  V30 17 1 18 9
M  V30 18 1 19 3
M  V30 19 1 19 9
M  V30 20 1 20 13
M  V30 21 1 21 6
M  V30 22 1 21 7
M  V30 23 2 21 17
M  V30 24 1 22 2
M  V30 25 1 4 23 CFG=3
M  V30 26 1 24 6
M  V30 27 1 25 6
M  V30 28 1 9 26 CFG=3
M  V30 29 1 27 10
M  V30 30 1 28 10
M  V30 31 1 29 11
M  V30 32 1 12 30 CFG=1
M  V30 33 1 13 31 CFG=1
M  V30 34 1 32 14
M  V30 35 1 33 14
M  V30 36 1 16 34 CFG=1
M  V30 37 1 35 18
M  V30 38 1 36 19
M  V30 39 1 37 20
M  V30 END BOND
M  V30 END CTAB
M  END
>  <i_epik_Tot_Q>  (1) 
0

>  <i_epik_Tot_abs_Q>  (1) 
0

>  <i_i_glide_confnum>  (1) 
20

>  <i_i_glide_lignum>  (1) 
108

>  <i_i_glide_posenum>  (1) 
296

>  <i_i_glide_rotatable_bonds>  (1) 
7

>  <i_lp_mmshare_version>  (1) 
72125

>  <i_m_source_file_index>  (1) 
67

>  <i_f3d_flags>  (1) 
0

>  <num_sample>  (1) 
100

>  <b_lp_Chiralities_Consistent>  (1) 
1

>  <r_epik_Charging_Adjusted_Penalty>  (1) 
0

>  <r_epik_Ionization_Penalty>  (1) 
9.0569377288722374e-07

>  <r_epik_Ionization_Penalty_Charging>  (1) 
0

>  <r_epik_Ionization_Penalty_Neutral>  (1) 
9.0569377288722374e-07

>  <r_epik_State_Penalty>  (1) 
-0

>  <r_glide_ring_energy>  (1) 
1.8196566873674958

>  <r_i_docking_score>  (1) 
-6.5784277685488313

>  <r_i_glide_ecoul>  (1) 
-10.319875213366398

>  <r_i_glide_eff_state_penalty>  (1) 
-0

>  <r_i_glide_einternal>  (1) 
7.3162287988811343

>  <r_i_glide_emodel>  (1) 
-39.001992192747423

>  <r_i_glide_emodel_strain>  (1) 
0.80884022099704111

>  <r_i_glide_energy>  (1) 
-29.905710711899793

>  <r_i_glide_erotb>  (1) 
0.58731731641866725

>  <r_i_glide_esite>  (1) 
-0.23173056702629191

>  <r_i_glide_evdw>  (1) 
-19.585835498533395

>  <r_i_glide_gscore>  (1) 
-6.5784277685488313

>  <r_i_glide_gscore_strain>  (1) 
0

>  <r_i_glide_hbond>  (1) 
-0.70440559615602782

>  <r_i_glide_ligand_efficiency>  (1) 
-0.31325846516899197

>  <r_i_glide_ligand_efficiency_ln>  (1) 
-1.6265029728087481

>  <r_i_glide_ligand_efficiency_sa>  (1) 
-0.86425635301077519

>  <r_i_glide_lipo>  (1) 
-1.0556429172746464

>  <r_i_glide_metal>  (1) 
-0

>  <r_i_glide_rewards>  (1) 
-2.6466929475789027

>  <r_lp_Energy>  (1) 
5.5804089999999995

>  <r_lp_tautomer_probability>  (1) 
1

>  <s_epik_Chemistry_Notes>  (1) 
This compound has an imine and may undergo hydrolysis. This compound contains an acetal/aminal-like group ( X-CH(R)-Y where X, Y are N, S, or O) that may be acid/base labile, releasing an aldehyde.

>  <s_epik_cmdline>  (1) 
J2VwaWtfcHl0aG9uJywgJy1waHQnLCAnMS4wJywgJy1waCcsICc3LjQnLCAnLXRuJywgJzgnLCAnLW1hJywgJzUwMCcsICctaW1hZScsICc8aW5maWxlLm1hZT4nLCAnLW9tYWUnLCAnPG91dGZpbGUubWFlPic=

>  <s_epik_input>  (1) 
RkMoRikoRilbQ0BIXTFbQ0hdPU5DKD1DMTIpW0NIMl1bQ0gyXVtDQEhdKFtDSDJdMilbQ0BASF0oW09IXSlbTkhdTjNbQ0BASF0oW09IXSlbQ0hdM1tPSF0=

>  <s_glide_docking_method>  (1) 
confgen

>  <s_i_glide_gridfile>  (1) 
gpcr_drd2_6luq_protein_autoprepared_prepared

>  <s_lp_Force_Field>  (1) 
S-OPLS

>  <s_lp_Variant>  (1) 
DiffSBDD_66-1

>  <s_m_source_file>  (1) 
generated_generic_title2_ligand_DiffSBDD_2026-06-23_prepared.sdf

>  <GenAI_Model>  (1) 
DiffSBDD

>  <Protein>  (1) 
generic_title2

$$$$
DiffSBDD_77
     RDKit          3D

  0  0  0  0  0  0  0  0  0  0999 V3000
M  V30 BEGIN CTAB
M  V30 COUNTS 64 67 0 0 1
M  V30 BEGIN ATOM
M  V30 1 N 12.814864 9.469625 -3.609740 0
M  V30 2 C 9.574698 3.852675 -11.662274 0
M  V30 3 C 7.137934 2.316678 -15.252400 0
M  V30 4 C 10.402251 6.210918 -7.829306 0
M  V30 5 C 10.383448 8.754932 -7.257160 0
M  V30 6 C 7.587028 1.154904 -13.047937 0
M  V30 7 C 12.284240 6.653367 -2.285067 0
M  V30 8 N 9.412395 5.967811 -8.892188 0
M  V30 9 C 8.492391 6.163894 -11.222003 0 CFG=1
M  V30 10 C 12.040405 8.472182 -4.178183 0
M  V30 11 C 5.190471 4.531901 -13.697492 0
M  V30 12 C 8.310505 5.060775 -8.553062 0
M  V30 13 C 9.547940 6.530650 -10.132579 0
M  V30 14 N 10.757544 7.425421 -5.580548 0
M  V30 15 C 7.970319 7.413351 -11.927038 0 CFG=2
M  V30 16 C 9.933641 7.292163 -6.847161 0 CFG=2
M  V30 17 C 11.398528 8.555917 -5.359212 0
M  V30 18 C 10.975410 6.547009 -4.527481 0
M  V30 19 C 6.730489 2.204827 -13.771172 0
M  V30 20 C 9.053997 5.157324 -12.270144 0 CFG=2
M  V30 21 C 6.480464 7.452467 -12.188192 0
M  V30 22 C 11.174306 9.364163 -6.384955 0
M  V30 23 C 11.788736 7.190151 -3.603781 0
M  V30 24 O 10.474717 7.294187 -10.414627 0
M  V30 25 C 8.063450 4.841592 -13.420567 0 CFG=1
M  V30 26 S 6.625586 3.812786 -12.868154 0 CHG=1
M  V30 27 C 7.710685 6.132708 -14.199665 0
M  V30 28 C 7.443390 7.365289 -13.346813 0 CFG=2
M  V30 29 H 13.120573 9.398018 -2.648349 0
M  V30 30 H 12.828435 10.391793 -4.010463 0
M  V30 31 H 8.785296 3.196477 -11.322190 0
M  V30 32 H 10.175403 3.300571 -12.385021 0
M  V30 33 H 10.175214 4.033104 -10.782886 0
M  V30 34 H 6.912387 1.386634 -15.775983 0
M  V30 35 H 6.613345 3.109666 -15.778161 0
M  V30 36 H 8.206267 2.486614 -15.372877 0
M  V30 37 H 11.375393 6.475096 -8.238190 0
M  V30 38 H 10.571946 5.281470 -7.289728 0
M  V30 39 H 10.050521 9.190217 -8.185420 0
M  V30 40 H 7.636492 0.231629 -13.626913 0
M  V30 41 H 8.610609 1.494963 -12.898291 0
M  V30 42 H 7.160048 0.881205 -12.082812 0
M  V30 43 H 12.472986 7.471088 -1.589977 0
M  V30 44 H 11.535086 5.995759 -1.842322 0
M  V30 45 H 13.204318 6.083239 -2.402091 0
M  V30 46 H 7.608353 5.721993 -10.779161 0
M  V30 47 H 4.305154 3.922398 -13.521261 0
M  V30 48 H 4.975415 5.538752 -13.362845 0
M  V30 49 H 5.375410 4.587296 -14.764798 0
M  V30 50 H 8.123250 4.340575 -9.334979 0
M  V30 51 H 8.517296 4.496647 -7.646040 0
M  V30 52 H 7.377799 5.591929 -8.386348 0
M  V30 53 H 8.414724 8.357598 -11.614991 0
M  V30 54 H 8.872201 7.239557 -6.598357 0
M  V30 55 H 10.528396 5.585621 -4.521551 0
M  V30 56 H 5.715908 1.807621 -13.748493 0
M  V30 57 H 9.921385 5.639946 -12.725336 0
M  V30 58 H 5.923630 6.589139 -11.843616 0
M  V30 59 H 5.982055 8.391303 -11.983761 0
M  V30 60 H 11.592504 10.356268 -6.464081 0
M  V30 61 H 8.614226 4.222528 -14.123971 0
M  V30 62 H 6.918966 6.012856 -14.932415 0
M  V30 63 H 8.574648 6.367005 -14.816975 0
M  V30 64 H 7.536458 8.284508 -13.920219 0
M  V30 END ATOM
M  V30 BEGIN BOND
M  V30 1 1 8 4
M  V30 2 1 10 1
M  V30 3 1 12 8
M  V30 4 1 13 8
M  V30 5 1 13 9
M  V30 6 1 15 9
M  V30 7 1 16 4
M  V30 8 1 16 5
M  V30 9 1 16 14
M  V30 10 2 17 10
M  V30 11 1 17 14
M  V30 12 1 18 14
M  V30 13 1 19 3
M  V30 14 1 19 6
M  V30 15 1 20 2
M  V30 16 1 20 9
M  V30 17 1 21 15
M  V30 18 2 22 5
M  V30 19 1 22 17
M  V30 20 1 23 7
M  V30 21 1 23 10
M  V30 22 2 23 18
M  V30 23 2 24 13
M  V30 24 1 25 20
M  V30 25 1 26 11 CFG=3
M  V30 26 1 26 19
M  V30 27 1 26 25
M  V30 28 1 27 25
M  V30 29 1 28 15
M  V30 30 1 28 21
M  V30 31 1 28 27
M  V30 32 1 29 1
M  V30 33 1 30 1
M  V30 34 1 31 2
M  V30 35 1 32 2
M  V30 36 1 33 2
M  V30 37 1 34 3
M  V30 38 1 35 3
M  V30 39 1 36 3
M  V30 40 1 37 4
M  V30 41 1 38 4
M  V30 42 1 39 5
M  V30 43 1 40 6
M  V30 44 1 41 6
M  V30 45 1 42 6
M  V30 46 1 43 7
M  V30 47 1 44 7
M  V30 48 1 45 7
M  V30 49 1 9 46 CFG=1
M  V30 50 1 47 11
M  V30 51 1 48 11
M  V30 52 1 49 11
M  V30 53 1 50 12
M  V30 54 1 51 12
M  V30 55 1 52 12
M  V30 56 1 15 53 CFG=3
M  V30 57 1 16 54 CFG=1
M  V30 58 1 55 18
M  V30 59 1 56 19
M  V30 60 1 20 57 CFG=3
M  V30 61 1 58 21
M  V30 62 1 59 21
M  V30 63 1 60 22
M  V30 64 1 25 61 CFG=3
M  V30 65 1 62 27
M  V30 66 1 63 27
M  V30 67 1 28 64 CFG=3
M  V30 END BOND
M  V30 END CTAB
M  END
>  <i_epik_Tot_Q>  (1) 
1

>  <i_epik_Tot_abs_Q>  (1) 
1

>  <i_i_glide_confnum>  (1) 
13

>  <i_i_glide_lignum>  (1) 
128

>  <i_i_glide_posenum>  (1) 
66

>  <i_i_glide_rotatable_bonds>  (1) 
6

>  <i_lp_mmshare_version>  (1) 
72125

>  <i_m_source_file_index>  (1) 
78

>  <i_f3d_flags>  (1) 
0

>  <num_sample>  (1) 
100

>  <b_lp_Chiralities_Consistent>  (1) 
1

>  <r_epik_Charging_Adjusted_Penalty>  (1) 
0

>  <r_epik_Ionization_Penalty>  (1) 
0.00035710652682445374

>  <r_epik_Ionization_Penalty_Charging>  (1) 
0

>  <r_epik_Ionization_Penalty_Neutral>  (1) 
0.00035710652682445374

>  <r_epik_State_Penalty>  (1) 
-0

>  <r_glide_ring_energy>  (1) 
0

>  <r_i_docking_score>  (1) 
-6.5713437839901694

>  <r_i_glide_ecoul>  (1) 
-3.5338326334104977

>  <r_i_glide_eff_state_penalty>  (1) 
-0

>  <r_i_glide_einternal>  (1) 
4.9424520864045718

>  <r_i_glide_emodel>  (1) 
-43.430244201765014

>  <r_i_glide_emodel_strain>  (1) 
0.48342974661056815

>  <r_i_glide_energy>  (1) 
-34.714418005790549

>  <r_i_glide_erotb>  (1) 
0.60532363573914161

>  <r_i_glide_esite>  (1) 
-0.15739572368081112

>  <r_i_glide_evdw>  (1) 
-31.180585372380055

>  <r_i_glide_gscore>  (1) 
-6.5713437839901694

>  <r_i_glide_gscore_strain>  (1) 
0

>  <r_i_glide_hbond>  (1) 
-0.028045934024763252

>  <r_i_glide_ligand_efficiency>  (1) 
-0.23469084942822033

>  <r_i_glide_ligand_efficiency_ln>  (1) 
-1.5168590883823279

>  <r_i_glide_ligand_efficiency_sa>  (1) 
-0.7126596451738656

>  <r_i_glide_lipo>  (1) 
-3.3065439380420276

>  <r_i_glide_metal>  (1) 
-0

>  <r_i_glide_rewards>  (1) 
-1.5955776603511307

>  <r_lp_Energy>  (1) 
24.865627999999997

>  <r_lp_tautomer_probability>  (1) 
1

>  <s_epik_cmdline>  (1) 
J2VwaWtfcHl0aG9uJywgJy1waHQnLCAnMS4wJywgJy1waCcsICc3LjQnLCAnLXRuJywgJzgnLCAnLW1hJywgJzUwMCcsICctaW1hZScsICc8aW5maWxlLm1hZT4nLCAnLW9tYWUnLCAnPG91dGZpbGUubWFlPic=

>  <s_epik_input>  (1) 
W0NIM11jKFtjSF0xKWMoW05IMl0pYyhuMTIpW0NIXT1bQ0hdW0NASF0yW0NIMl1OKFtDSDNdKUMoPU8pW0NAQEhdM1tDQEBIXShbQ0gzXSlbQ0BASF0oW1MrXShbQ0gzXSlbQ0hdKFtDSDNdKVtDSDNdKVtDSDJdW0NASF0oW0NIXTM0KVtDSDJdNA==

>  <s_glide_docking_method>  (1) 
confgen

>  <s_i_glide_gridfile>  (1) 
gpcr_drd2_6luq_protein_autoprepared_prepared

>  <s_lp_Force_Field>  (1) 
S-OPLS

>  <s_lp_Variant>  (1) 
DiffSBDD_77-1

>  <s_m_source_file>  (1) 
generated_generic_title2_ligand_DiffSBDD_2026-06-23_prepared.sdf

>  <GenAI_Model>  (1) 
DiffSBDD

>  <Protein>  (1) 
generic_title2

$$$$
DiffSBDD_83
     RDKit          3D

  0  0  0  0  0  0  0  0  0  0999 V3000
M  V30 BEGIN CTAB
M  V30 COUNTS 45 47 0 0 1
M  V30 BEGIN ATOM
M  V30 1 C 11.146070 8.291885 -6.429335 0
M  V30 2 C 6.036707 6.679462 -16.199544 0
M  V30 3 C 6.973361 6.193862 -14.000836 0
M  V30 4 C 9.182332 4.923740 -12.661144 0
M  V30 5 F 6.636651 5.302605 -18.061282 0
M  V30 6 C 6.150753 6.979870 -14.830212 0
M  V30 7 C 7.568438 4.800370 -15.916988 0
M  V30 8 C 10.997720 7.379471 -8.548403 0 CFG=1
M  V30 9 C 6.746034 5.590624 -16.743347 0
M  V30 10 N 11.741354 9.179812 -7.083883 0
M  V30 11 N 8.975479 6.790202 -10.116467 0 CFG=1 CHG=1
M  V30 12 C 10.747892 7.009895 -7.073444 0 CFG=2
M  V30 13 C 7.688311 5.097519 -14.544890 0
M  V30 14 C 9.351676 6.548659 -6.653451 0
M  V30 15 C 9.856257 7.661075 -10.878087 0
M  V30 16 O 8.497474 4.312113 -13.749139 0
M  V30 17 C 8.474583 4.666757 -11.319215 0
M  V30 18 F 5.244845 7.437724 -16.994533 0
M  V30 19 C 13.378166 8.340747 -8.645448 0
M  V30 20 C 9.154130 5.325104 -10.100988 0
M  V30 21 C 9.775289 7.758909 -9.369832 0 CFG=2
M  V30 22 C 11.903970 8.650596 -8.426230 0 CFG=1
M  V30 23 H 10.891479 8.403970 -5.372053 0
M  V30 24 H 7.052644 6.430260 -12.952618 0
M  V30 25 H 9.340542 5.982557 -12.856710 0
M  V30 26 H 10.175290 4.481088 -12.611404 0
M  V30 27 H 5.605183 7.814018 -14.414838 0
M  V30 28 H 8.110200 3.965925 -16.336855 0
M  V30 29 H 11.521444 6.579521 -9.061065 0
M  V30 30 H 9.374393 6.347756 -5.583587 0
M  V30 31 H 8.579698 7.296761 -6.844815 0
M  V30 32 H 9.064276 5.623359 -7.145067 0
M  V30 33 H 9.248558 8.300938 -11.515573 0
M  V30 34 H 10.677077 7.111596 -11.336575 0
M  V30 35 H 8.470616 3.590708 -11.174079 0
M  V30 36 H 7.425987 4.960772 -11.359284 0
M  V30 37 H 13.583564 8.046477 -9.673559 0
M  V30 38 H 14.010205 9.189912 -8.391100 0
M  V30 39 H 13.685031 7.540314 -7.985383 0
M  V30 40 H 10.175410 5.013491 -10.022895 0
M  V30 41 H 8.661912 4.952317 -9.204775 0
M  V30 42 H 9.142937 8.546462 -8.962509 0
M  V30 43 H 11.612391 9.413752 -9.151246 0
M  V30 44 H 8.003596 7.121150 -9.987554 0
M  V30 45 H 11.475478 6.253798 -6.772947 0
M  V30 END ATOM
M  V30 BEGIN BOND
M  V30 1 1 6 2
M  V30 2 2 6 3
M  V30 3 2 9 2
M  V30 4 1 9 5
M  V30 5 1 9 7
M  V30 6 2 10 1
M  V30 7 1 12 1
M  V30 8 1 12 8
M  V30 9 1 13 3
M  V30 10 2 13 7
M  V30 11 1 14 12
M  V30 12 1 15 11
M  V30 13 1 16 4
M  V30 14 1 16 13
M  V30 15 1 17 4
M  V30 16 1 18 2
M  V30 17 1 20 11
M  V30 18 1 20 17
M  V30 19 1 21 8
M  V30 20 1 21 11
M  V30 21 1 21 15
M  V30 22 1 22 8
M  V30 23 1 22 10
M  V30 24 1 22 19
M  V30 25 1 23 1
M  V30 26 1 24 3
M  V30 27 1 25 4
M  V30 28 1 26 4
M  V30 29 1 27 6
M  V30 30 1 28 7
M  V30 31 1 8 29 CFG=3
M  V30 32 1 30 14
M  V30 33 1 31 14
M  V30 34 1 32 14
M  V30 35 1 33 15
M  V30 36 1 34 15
M  V30 37 1 35 17
M  V30 38 1 36 17
M  V30 39 1 37 19
M  V30 40 1 38 19
M  V30 41 1 39 19
M  V30 42 1 40 20
M  V30 43 1 41 20
M  V30 44 1 21 42 CFG=3
M  V30 45 1 22 43 CFG=3
M  V30 46 1 11 44 CFG=3
M  V30 47 1 12 45 CFG=1
M  V30 END BOND
M  V30 END CTAB
M  END
>  <i_epik_Tot_Q>  (1) 
1

>  <i_epik_Tot_abs_Q>  (1) 
1

>  <i_i_glide_confnum>  (1) 
8

>  <i_i_glide_lignum>  (1) 
147

>  <i_i_glide_posenum>  (1) 
263

>  <i_i_glide_rotatable_bonds>  (1) 
6

>  <i_lp_mmshare_version>  (1) 
72125

>  <i_m_source_file_index>  (1) 
84

>  <i_f3d_flags>  (1) 
0

>  <num_sample>  (1) 
100

>  <b_lp_Chiralities_Consistent>  (1) 
1

>  <r_epik_Charging_Adjusted_Penalty>  (1) 
0.43105765877043739

>  <r_epik_Ionization_Penalty>  (1) 
0.36079924242796862

>  <r_epik_Ionization_Penalty_Charging>  (1) 
0.10499320228047652

>  <r_epik_Ionization_Penalty_Neutral>  (1) 
0.25580604014749209

>  <r_epik_State_Penalty>  (1) 
0.32606445648996085

>  <r_glide_ring_energy>  (1) 
0

>  <r_i_docking_score>  (1) 
-6.5708972007167574

>  <r_i_glide_ecoul>  (1) 
-9.7589748432170484

>  <r_i_glide_eff_state_penalty>  (1) 
0.32606445648996085

>  <r_i_glide_einternal>  (1) 
9.406013660622051

>  <r_i_glide_emodel>  (1) 
-49.81128890735615

>  <r_i_glide_emodel_strain>  (1) 
0.83042368420677093

>  <r_i_glide_energy>  (1) 
-34.976878602440365

>  <r_i_glide_erotb>  (1) 
0.96718860002963114

>  <r_i_glide_esite>  (1) 
-0.10000000000000001

>  <r_i_glide_evdw>  (1) 
-25.217903759223315

>  <r_i_glide_gscore>  (1) 
-6.8969616572067185

>  <r_i_glide_gscore_strain>  (1) 
0

>  <r_i_glide_hbond>  (1) 
-0.14416164908751122

>  <r_i_glide_ligand_efficiency>  (1) 
-0.29867714548712532

>  <r_i_glide_ligand_efficiency_ln>  (1) 
-1.6061669551541176

>  <r_i_glide_ligand_efficiency_sa>  (1) 
-0.83690510882280644

>  <r_i_glide_lipo>  (1) 
-1.9615863823371238

>  <r_i_glide_metal>  (1) 
-0

>  <r_i_glide_rewards>  (1) 
-2.9336608113679907

>  <r_lp_Energy>  (1) 
26.820309999999999

>  <r_lp_tautomer_probability>  (1) 
0.99998600000000004

>  <s_epik_Chemistry_Notes>  (1) 
This compound has an imine and may undergo hydrolysis.

>  <s_epik_cmdline>  (1) 
J2VwaWtfcHl0aG9uJywgJy1waHQnLCAnMS4wJywgJy1waCcsICc3LjQnLCAnLXRuJywgJzgnLCAnLW1hJywgJzUwMCcsICctaW1hZScsICc8aW5maWxlLm1hZT4nLCAnLW9tYWUnLCAnPG91dGZpbGUubWFlPic=

>  <s_epik_input>  (1) 
W0NIM11bQ0BASF0xTj1bQ0hdW0NAQEhdKFtDSDNdKVtDQEhdMVtDQEhdMltDSDJdTjJbQ0gyXVtDSDJdW0NIMl1PYyhbY0hdYzNGKVtjSF1bY0hdYzNG

>  <s_glide_docking_method>  (1) 
confgen

>  <s_i_glide_gridfile>  (1) 
gpcr_drd2_6luq_protein_autoprepared_prepared

>  <s_lp_Force_Field>  (1) 
S-OPLS

>  <s_lp_Variant>  (1) 
DiffSBDD_83-1

>  <s_m_source_file>  (1) 
generated_generic_title2_ligand_DiffSBDD_2026-06-23_prepared.sdf

>  <GenAI_Model>  (1) 
DiffSBDD

>  <Protein>  (1) 
generic_title2

$$$$
DiffSBDD_52
     RDKit          3D

  0  0  0  0  0  0  0  0  0  0999 V3000
M  V30 BEGIN CTAB
M  V30 COUNTS 51 54 0 0 1
M  V30 BEGIN ATOM
M  V30 1 C 11.862015 9.294764 -3.678778 0
M  V30 2 F 12.693915 8.224909 -1.633433 0
M  V30 3 C 6.604102 5.193998 -11.494694 0 CFG=1
M  V30 4 C 8.946409 4.180186 -12.528186 0
M  V30 5 C 8.974954 4.535525 -11.043177 0 CFG=2
M  V30 6 C 11.956854 6.810821 -3.299677 0
M  V30 7 C 10.185859 8.239546 -7.676966 0
M  V30 8 C 7.991237 4.818730 -14.846755 0
M  V30 9 C 12.175410 8.060049 -2.860564 0
M  V30 10 N 7.716197 5.045209 -10.510590 0 CFG=1 CHG=1
M  V30 11 C 10.841951 7.700423 -5.448025 0 CFG=2
M  V30 12 O 5.683967 5.990227 -10.785025 0
M  V30 13 C 6.758336 5.631500 -15.238184 0
M  V30 14 O 10.892571 7.352229 -6.825138 0
M  V30 15 C 11.624266 9.004701 -5.172414 0
M  V30 16 C 8.312560 5.271435 -13.415168 0 CFG=1
M  V30 17 C 5.949176 5.692882 -13.945560 0
M  V30 18 C 10.088024 7.639008 -9.078882 0
M  V30 19 C 11.381452 6.482523 -4.666835 0
M  V30 20 C 8.872621 5.948160 -10.507599 0 CFG=1
M  V30 21 C 9.319306 6.309586 -9.102661 0
M  V30 22 C 7.001452 5.847760 -12.837615 0 CFG=1
M  V30 23 H 10.982947 9.773471 -3.246631 0
M  V30 24 H 12.691131 9.990227 -3.564259 0
M  V30 25 H 6.162519 4.210527 -11.661490 0
M  V30 26 H 8.406562 3.238405 -12.639672 0
M  V30 27 H 9.966915 3.986434 -12.854355 0
M  V30 28 H 9.375538 3.769952 -10.385028 0
M  V30 29 H 12.202636 5.971604 -2.665143 0
M  V30 30 H 10.712859 9.190212 -7.736899 0
M  V30 31 H 9.183414 8.438842 -7.292839 0
M  V30 32 H 7.741162 3.757003 -14.864281 0
M  V30 33 H 8.827051 4.971680 -15.530527 0
M  V30 34 H 9.795725 7.843292 -5.185025 0
M  V30 35 H 6.149334 6.693495 -10.321215 0
M  V30 36 H 6.201368 5.190235 -16.064722 0
M  V30 37 H 7.054732 6.638265 -15.536147 0
M  V30 38 H 12.575411 8.954982 -5.690287 0
M  V30 39 H 11.106394 9.859589 -5.607391 0
M  V30 40 H 9.023611 6.094679 -13.483880 0
M  V30 41 H 5.393316 4.762145 -13.824050 0
M  V30 42 H 5.229116 6.510598 -13.944365 0
M  V30 43 H 11.082799 7.503495 -9.504220 0
M  V30 44 H 9.577549 8.367601 -9.710477 0
M  V30 45 H 10.583857 5.751072 -4.546123 0
M  V30 46 H 12.168907 5.990225 -5.238172 0
M  V30 47 H 8.708144 6.789648 -11.172804 0
M  V30 48 H 8.443957 6.390222 -8.457175 0
M  V30 49 H 9.932697 5.508745 -8.687287 0
M  V30 50 H 7.145699 6.919531 -12.689119 0
M  V30 51 H 7.477505 4.666526 -9.604499 0
M  V30 END ATOM
M  V30 BEGIN BOND
M  V30 1 1 5 4
M  V30 2 1 9 1
M  V30 3 1 9 2
M  V30 4 2 9 6
M  V30 5 1 10 3
M  V30 6 1 10 5
M  V30 7 1 12 3
M  V30 8 1 13 8
M  V30 9 1 14 7
M  V30 10 1 14 11
M  V30 11 1 15 1
M  V30 12 1 15 11
M  V30 13 1 16 4
M  V30 14 1 16 8
M  V30 15 1 17 13
M  V30 16 1 18 7
M  V30 17 1 19 6
M  V30 18 1 19 11
M  V30 19 1 20 5
M  V30 20 1 20 10
M  V30 21 1 21 18
M  V30 22 1 21 20
M  V30 23 1 22 3
M  V30 24 1 22 16
M  V30 25 1 22 17
M  V30 26 1 23 1
M  V30 27 1 24 1
M  V30 28 1 3 25 CFG=3
M  V30 29 1 26 4
M  V30 30 1 27 4
M  V30 31 1 5 28 CFG=1
M  V30 32 1 29 6
M  V30 33 1 30 7
M  V30 34 1 31 7
M  V30 35 1 32 8
M  V30 36 1 33 8
M  V30 37 1 11 34 CFG=1
M  V30 38 1 35 12
M  V30 39 1 36 13
M  V30 40 1 37 13
M  V30 41 1 38 15
M  V30 42 1 39 15
M  V30 43 1 16 40 CFG=3
M  V30 44 1 41 17
M  V30 45 1 42 17
M  V30 46 1 43 18
M  V30 47 1 44 18
M  V30 48 1 45 19
M  V30 49 1 46 19
M  V30 50 1 20 47 CFG=3
M  V30 51 1 48 21
M  V30 52 1 49 21
M  V30 53 1 22 50 CFG=1
M  V30 54 1 10 51 CFG=1
M  V30 END BOND
M  V30 END CTAB
M  END
>  <i_epik_Tot_Q>  (1) 
1

>  <i_epik_Tot_abs_Q>  (1) 
1

>  <i_i_glide_confnum>  (1) 
129

>  <i_i_glide_lignum>  (1) 
84

>  <i_i_glide_posenum>  (1) 
105

>  <i_i_glide_rotatable_bonds>  (1) 
6

>  <i_lp_mmshare_version>  (1) 
72125

>  <i_m_source_file_index>  (1) 
53

>  <i_f3d_flags>  (1) 
0

>  <num_sample>  (1) 
100

>  <b_lp_Chiralities_Consistent>  (1) 
1

>  <r_epik_Charging_Adjusted_Penalty>  (1) 
0.54296395038273226

>  <r_epik_Ionization_Penalty>  (1) 
0.53316988730295212

>  <r_epik_Ionization_Penalty_Charging>  (1) 
0.022916544562111445

>  <r_epik_Ionization_Penalty_Neutral>  (1) 
0.51025334274084067

>  <r_epik_State_Penalty>  (1) 
0.52004740582062081

>  <r_glide_ring_energy>  (1) 
0

>  <r_i_docking_score>  (1) 
-6.5611652415503121

>  <r_i_glide_ecoul>  (1) 
-7.1053459393882239

>  <r_i_glide_eff_state_penalty>  (1) 
0.52004740582062081

>  <r_i_glide_einternal>  (1) 
10.023370263053518

>  <r_i_glide_emodel>  (1) 
-50.630120580593498

>  <r_i_glide_emodel_strain>  (1) 
0.99083226879182718

>  <r_i_glide_energy>  (1) 
-36.708892125512932

>  <r_i_glide_erotb>  (1) 
0.76914675799504084

>  <r_i_glide_esite>  (1) 
-0.10673525132755486

>  <r_i_glide_evdw>  (1) 
-29.60354618612471

>  <r_i_glide_gscore>  (1) 
-7.0812126473709327

>  <r_i_glide_gscore_strain>  (1) 
0

>  <r_i_glide_hbond>  (1) 
-0.16

>  <r_i_glide_ligand_efficiency>  (1) 
-0.29823478370683237

>  <r_i_glide_ligand_efficiency_ln>  (1) 
-1.6037881093520026

>  <r_i_glide_ligand_efficiency_sa>  (1) 
-0.83566559371604676

>  <r_i_glide_lipo>  (1) 
-2.7176248686662379

>  <r_i_glide_metal>  (1) 
-0

>  <r_i_glide_rewards>  (1) 
-2.3200200851577133

>  <r_lp_Energy>  (1) 
22.961214999999999

>  <s_epik_Chemistry_Notes>  (1) 
This compound contains an acetal/aminal-like group ( X-CH(R)-Y where X, Y are N, S, or O) that may be acid/base labile, releasing an aldehyde.

>  <s_epik_cmdline>  (1) 
J2VwaWtfcHl0aG9uJywgJy1waHQnLCAnMS4wJywgJy1waCcsICc3LjQnLCAnLXRuJywgJzgnLCAnLW1hJywgJzUwMCcsICctaW1hZScsICc8aW5maWxlLm1hZT4nLCAnLW9tYWUnLCAnPG91dGZpbGUubWFlPic=

>  <s_epik_input>  (1) 
RkMxPVtDSF1bQ0gyXVtDQEBIXShbQ0gyXVtDSDJdMSlPW0NIMl1bQ0gyXVtDSDJdW0NAQEhdMk4oW0NASF0yMylbQ0BASF0oW09IXSlbQ0BIXTRbQ0BASF0oW0NIMl0zKVtDSDJdW0NIMl1bQ0gyXTQ=

>  <s_glide_docking_method>  (1) 
confgen

>  <s_i_glide_gridfile>  (1) 
gpcr_drd2_6luq_protein_autoprepared_prepared

>  <s_lp_Force_Field>  (1) 
S-OPLS

>  <s_lp_Variant>  (1) 
DiffSBDD_52-3

>  <s_m_source_file>  (1) 
generated_generic_title2_ligand_DiffSBDD_2026-06-23_prepared.sdf

>  <GenAI_Model>  (1) 
DiffSBDD

>  <Protein>  (1) 
generic_title2

$$$$
DiffSBDD_55
     RDKit          3D

  0  0  0  0  0  0  0  0  0  0999 V3000
M  V30 BEGIN CTAB
M  V30 COUNTS 28 29 0 0 1
M  V30 BEGIN ATOM
M  V30 1 C 12.674541 9.043077 -3.249438 0
M  V30 2 C 11.448630 8.157454 -5.166253 0
M  V30 3 C 11.774318 6.790232 -3.152169 0
M  V30 4 C 10.150161 7.302458 -7.091570 0 CFG=2
M  V30 5 O 13.657801 8.390227 -9.453362 0
M  V30 6 S 9.775868 8.090121 -8.680933 0
M  V30 7 N 12.267438 7.996200 -9.610715 0
M  V30 8 N 10.966617 8.345783 -6.488715 0
M  V30 9 C 12.175397 9.198544 -4.547665 0
M  V30 10 C 11.853947 9.099613 -7.362599 0
M  V30 11 C 10.861010 5.989852 -7.407892 0
M  V30 12 C 12.482372 7.845740 -2.554917 0
M  V30 13 F 12.975409 7.710840 -1.307808 0
M  V30 14 C 11.238706 6.943119 -4.451236 0
M  V30 15 C 11.404053 8.866821 -8.813999 0 CFG=2
M  V30 16 H 13.215177 9.846176 -2.785801 0
M  V30 17 H 11.623514 5.867769 -2.611079 0
M  V30 18 H 9.233265 7.140576 -6.522482 0
M  V30 19 H 13.670081 9.328877 -9.636104 0
M  V30 20 H 12.107652 8.051633 -10.607123 0
M  V30 21 H 12.341303 10.127080 -5.069711 0
M  V30 22 H 12.889763 8.806911 -7.190129 0
M  V30 23 H 11.775413 10.160932 -7.132312 0
M  V30 24 H 11.608433 5.670731 -6.685845 0
M  V30 25 H 10.126303 5.190469 -7.508699 0
M  V30 26 H 11.375410 6.018566 -8.359661 0
M  V30 27 H 10.679713 6.133808 -4.888685 0
M  V30 28 H 11.323893 9.819442 -9.337050 0
M  V30 END ATOM
M  V30 BEGIN BOND
M  V30 1 1 6 4
M  V30 2 1 7 5
M  V30 3 1 8 2
M  V30 4 1 8 4
M  V30 5 2 9 1
M  V30 6 1 9 2
M  V30 7 1 10 8
M  V30 8 1 11 4
M  V30 9 1 12 1
M  V30 10 2 12 3
M  V30 11 1 13 12
M  V30 12 2 14 2
M  V30 13 1 14 3
M  V30 14 1 15 6
M  V30 15 1 15 7
M  V30 16 1 15 10
M  V30 17 1 16 1
M  V30 18 1 17 3
M  V30 19 1 4 18 CFG=1
M  V30 20 1 19 5
M  V30 21 1 20 7
M  V30 22 1 21 9
M  V30 23 1 22 10
M  V30 24 1 23 10
M  V30 25 1 24 11
M  V30 26 1 25 11
M  V30 27 1 26 11
M  V30 28 1 27 14
M  V30 29 1 15 28 CFG=3
M  V30 END BOND
M  V30 END CTAB
M  END
>  <i_epik_Tot_Q>  (1) 
0

>  <i_epik_Tot_abs_Q>  (1) 
0

>  <i_i_glide_confnum>  (1) 
21

>  <i_i_glide_lignum>  (1) 
88

>  <i_i_glide_posenum>  (1) 
318

>  <i_i_glide_rotatable_bonds>  (1) 
3

>  <i_lp_mmshare_version>  (1) 
72125

>  <i_m_source_file_index>  (1) 
56

>  <i_f3d_flags>  (1) 
0

>  <num_sample>  (1) 
100

>  <b_lp_Chiralities_Consistent>  (1) 
1

>  <r_epik_Charging_Adjusted_Penalty>  (1) 
0

>  <r_epik_Ionization_Penalty>  (1) 
0.00013553305087233701

>  <r_epik_Ionization_Penalty_Charging>  (1) 
0

>  <r_epik_Ionization_Penalty_Neutral>  (1) 
0.00013553305087233701

>  <r_epik_State_Penalty>  (1) 
-0

>  <r_glide_ring_energy>  (1) 
1.903466321057584

>  <r_i_docking_score>  (1) 
-6.5597841695847237

>  <r_i_glide_ecoul>  (1) 
-6.2262217384163758

>  <r_i_glide_eff_state_penalty>  (1) 
-0

>  <r_i_glide_einternal>  (1) 
14.294883547155804

>  <r_i_glide_emodel>  (1) 
-24.76196005227477

>  <r_i_glide_emodel_strain>  (1) 
3.6713805631395822

>  <r_i_glide_energy>  (1) 
-27.293296535860335

>  <r_i_glide_erotb>  (1) 
0.65380846344162624

>  <r_i_glide_esite>  (1) 
-0.071371495697402962

>  <r_i_glide_evdw>  (1) 
-21.067074797443961

>  <r_i_glide_gscore>  (1) 
-6.5597841695847237

>  <r_i_glide_gscore_strain>  (1) 
0

>  <r_i_glide_hbond>  (1) 
-0.32000000000000001

>  <r_i_glide_ligand_efficiency>  (1) 
-0.43731894463898158

>  <r_i_glide_ligand_efficiency_ln>  (1) 
-1.7690656312136339

>  <r_i_glide_ligand_efficiency_sa>  (1) 
-1.0785212616021149

>  <r_i_glide_lipo>  (1) 
-2.2348957922582526

>  <r_i_glide_metal>  (1) 
-0

>  <r_i_glide_rewards>  (1) 
-2.6000383444360393

>  <r_lp_Energy>  (1) 
2.3965259999999997

>  <r_lp_tautomer_probability>  (1) 
1

>  <s_epik_Chemistry_Notes>  (1) 
This compound contains an acetal/aminal-like group ( X-CH(R)-Y where X, Y are N, S, or O) that may be acid/base labile, releasing an aldehyde. This compound has a N-S or N-O group and may undergo hydrolysis at high or low pH.

>  <s_epik_cmdline>  (1) 
J2VwaWtfcHl0aG9uJywgJy1waHQnLCAnMS4wJywgJy1waCcsICc3LjQnLCAnLXRuJywgJzgnLCAnLW1hJywgJzUwMCcsICctaW1hZScsICc8aW5maWxlLm1hZT4nLCAnLW9tYWUnLCAnPG91dGZpbGUubWFlPic=

>  <s_epik_input>  (1) 
W2NIXTFbY0hdYyhGKVtjSF1bY0hdYzFOMltDSDJdW0NAQEhdKFtOSF1bT0hdKVNbQ0BIXTJbQ0gzXQ==

>  <s_glide_docking_method>  (1) 
confgen

>  <s_i_glide_gridfile>  (1) 
gpcr_drd2_6luq_protein_autoprepared_prepared

>  <s_lp_Force_Field>  (1) 
S-OPLS

>  <s_lp_Variant>  (1) 
DiffSBDD_55-1

>  <s_m_source_file>  (1) 
generated_generic_title2_ligand_DiffSBDD_2026-06-23_prepared.sdf

>  <GenAI_Model>  (1) 
DiffSBDD

>  <Protein>  (1) 
generic_title2

$$$$
DiffSBDD_10
     RDKit          3D

  0  0  0  0  0  0  0  0  0  0999 V3000
M  V30 BEGIN CTAB
M  V30 COUNTS 56 60 0 0 1
M  V30 BEGIN ATOM
M  V30 1 S 9.412152 7.309535 -11.584965 0
M  V30 2 C 11.454469 7.846963 -9.829749 0
M  V30 3 C 7.158020 5.989827 -12.362500 0 CFG=1
M  V30 4 C 10.529944 7.208928 -6.406310 0
M  V30 5 C 6.554815 6.587297 -14.903116 0
M  V30 6 C 11.234494 7.509061 -5.107522 0
M  V30 7 O 8.975423 8.653682 -11.985024 0
M  V30 8 C 7.164014 5.215667 -15.256423 0
M  V30 9 C 12.038797 6.774889 -2.913801 0
M  V30 10 C 7.200176 2.780691 -14.261722 0
M  V30 11 C 7.121175 2.359576 -12.785054 0
M  V30 12 N 8.009823 6.390228 -11.227212 0
M  V30 13 C 5.772183 6.563004 -12.384778 0
M  V30 14 C 6.805056 4.232515 -14.145866 0 CFG=1
M  V30 15 O 10.289449 6.488173 -12.430527 0
M  V30 16 C 11.375403 6.505943 -4.126200 0
M  V30 17 N 10.132014 7.443199 -10.033393 0
M  V30 18 C 6.765346 6.997175 -13.443584 0 CFG=1
M  V30 19 C 11.775380 8.790251 -4.858011 0
M  V30 20 C 9.255434 6.390234 -6.432339 0
M  V30 21 C 12.575389 8.046855 -2.675678 0
M  V30 22 O 12.248305 7.990230 -10.751592 0
M  V30 23 O 7.043836 3.575572 -12.021842 0
M  V30 24 C 11.542014 6.889092 -7.479877 0
M  V30 25 C 12.447348 9.051990 -3.646031 0
M  V30 26 C 11.858480 8.092877 -8.381295 0
M  V30 27 C 9.196378 7.865626 -6.723803 0
M  V30 28 C 7.510848 4.606024 -12.848605 0 CFG=2
M  V30 29 H 5.482343 6.577131 -15.102332 0
M  V30 30 H 6.974991 7.355872 -15.551977 0
M  V30 31 H 6.788226 4.871624 -16.220287 0
M  V30 32 H 8.248385 5.297707 -15.347205 0
M  V30 33 H 12.135881 5.998495 -2.168845 0
M  V30 34 H 6.547354 2.199533 -14.910952 0
M  V30 35 H 8.217032 2.686009 -14.636437 0
M  V30 36 H 6.236988 1.752411 -12.586185 0
M  V30 37 H 8.001564 1.779991 -12.502374 0
M  V30 38 H 7.450860 6.906848 -10.519984 0
M  V30 39 H 4.975410 5.887258 -12.669588 0
M  V30 40 H 5.509470 7.290095 -11.617660 0
M  V30 41 H 5.722854 4.253749 -14.005083 0
M  V30 42 H 10.968182 5.531494 -4.304941 0
M  V30 43 H 9.465656 7.328591 -9.270091 0
M  V30 44 H 7.156117 7.991505 -13.346854 0
M  V30 45 H 11.680639 9.569536 -5.599885 0
M  V30 46 H 9.059488 5.738742 -7.281343 0
M  V30 47 H 8.925480 5.990234 -5.482484 0
M  V30 48 H 13.087687 8.253728 -1.747845 0
M  V30 49 H 12.445783 6.502810 -7.015950 0
M  V30 50 H 11.173090 6.043462 -8.062025 0
M  V30 51 H 12.866068 10.019009 -3.462506 0
M  V30 52 H 11.374605 9.004533 -8.030240 0
M  V30 53 H 12.930031 8.295376 -8.351554 0
M  V30 54 H 8.729447 8.504913 -5.984998 0
M  V30 55 H 8.975367 8.144965 -7.749460 0
M  V30 56 H 8.594562 4.527691 -12.963953 0
M  V30 END ATOM
M  V30 BEGIN BOND
M  V30 1 1 6 4
M  V30 2 2 7 1
M  V30 3 1 8 5
M  V30 4 1 11 10
M  V30 5 1 12 1
M  V30 6 1 3 12 CFG=1
M  V30 7 1 13 3
M  V30 8 1 14 8
M  V30 9 1 14 10
M  V30 10 2 15 1
M  V30 11 2 16 6
M  V30 12 1 16 9
M  V30 13 1 17 1
M  V30 14 1 17 2
M  V30 15 1 18 3
M  V30 16 1 18 5
M  V30 17 1 18 13
M  V30 18 1 19 6
M  V30 19 1 20 4
M  V30 20 2 21 9
M  V30 21 2 22 2
M  V30 22 1 23 11
M  V30 23 1 24 4
M  V30 24 2 25 19
M  V30 25 1 25 21
M  V30 26 1 26 2
M  V30 27 1 26 24
M  V30 28 1 27 4
M  V30 29 1 27 20
M  V30 30 1 28 3
M  V30 31 1 28 14
M  V30 32 1 28 23
M  V30 33 1 29 5
M  V30 34 1 30 5
M  V30 35 1 31 8
M  V30 36 1 32 8
M  V30 37 1 33 9
M  V30 38 1 34 10
M  V30 39 1 35 10
M  V30 40 1 36 11
M  V30 41 1 37 11
M  V30 42 1 38 12
M  V30 43 1 39 13
M  V30 44 1 40 13
M  V30 45 1 14 41 CFG=1
M  V30 46 1 42 16
M  V30 47 1 43 17
M  V30 48 1 18 44 CFG=3
M  V30 49 1 45 19
M  V30 50 1 46 20
M  V30 51 1 47 20
M  V30 52 1 48 21
M  V30 53 1 49 24
M  V30 54 1 50 24
M  V30 55 1 51 25
M  V30 56 1 52 26
M  V30 57 1 53 26
M  V30 58 1 54 27
M  V30 59 1 55 27
M  V30 60 1 28 56 CFG=3
M  V30 END BOND
M  V30 END CTAB
M  END
>  <i_epik_Tot_Q>  (1) 
0

>  <i_epik_Tot_abs_Q>  (1) 
0

>  <i_i_glide_confnum>  (1) 
454

>  <i_i_glide_lignum>  (1) 
20

>  <i_i_glide_posenum>  (1) 
250

>  <i_i_glide_rotatable_bonds>  (1) 
8

>  <i_lp_mmshare_version>  (1) 
72125

>  <i_m_source_file_index>  (1) 
11

>  <i_f3d_flags>  (1) 
0

>  <num_sample>  (1) 
100

>  <b_lp_Chiralities_Consistent>  (1) 
1

>  <r_epik_Charging_Adjusted_Penalty>  (1) 
1.0976853204972508

>  <r_epik_Ionization_Penalty>  (1) 
2.0664492353545092

>  <r_epik_Ionization_Penalty_Charging>  (1) 
0

>  <r_epik_Ionization_Penalty_Neutral>  (1) 
2.0664492353545092

>  <r_epik_State_Penalty>  (1) 
1.0976853204972508

>  <r_glide_ring_energy>  (1) 
0

>  <r_i_docking_score>  (1) 
-6.5506655146285979

>  <r_i_glide_ecoul>  (1) 
-8.5363427320783671

>  <r_i_glide_eff_state_penalty>  (1) 
1.0976853204972508

>  <r_i_glide_einternal>  (1) 
7.5688086582665672

>  <r_i_glide_emodel>  (1) 
-59.29891007376682

>  <r_i_glide_emodel_strain>  (1) 
0.11671291704448095

>  <r_i_glide_energy>  (1) 
-43.221027602538022

>  <r_i_glide_erotb>  (1) 
0.84027593632591602

>  <r_i_glide_esite>  (1) 
-0.27497132330857871

>  <r_i_glide_evdw>  (1) 
-34.684684870459655

>  <r_i_glide_gscore>  (1) 
-7.6483508351258482

>  <r_i_glide_gscore_strain>  (1) 
0

>  <r_i_glide_hbond>  (1) 
-0.16

>  <r_i_glide_ligand_efficiency>  (1) 
-0.23395233980816421

>  <r_i_glide_ligand_efficiency_ln>  (1) 
-1.5120859366733068

>  <r_i_glide_ligand_efficiency_sa>  (1) 
-0.71041709500597916

>  <r_i_glide_lipo>  (1) 
-3.2435433646926968

>  <r_i_glide_metal>  (1) 
-0

>  <r_i_glide_rewards>  (1) 
-1.7954264301157503

>  <r_lp_Energy>  (1) 
1.11948

>  <s_epik_cmdline>  (1) 
J2VwaWtfcHl0aG9uJywgJy1waHQnLCAnMS4wJywgJy1waCcsICc3LjQnLCAnLXRuJywgJzgnLCAnLW1hJywgJzUwMCcsICctaW1hZScsICc8aW5maWxlLm1hZT4nLCAnLW9tYWUnLCAnPG91dGZpbGUubWFlPic=

>  <s_epik_input>  (1) 
W0NIMl0xW0NIMl1PW0NASF0yW0NASF0xW0NIMl1bQ0gyXVtDQEBIXShbQ0gyXTMpW0NAXTIzW05IXVMoPU8pKD1PKVtOSF1DKD1PKVtDSDJdW0NIMl1DNChbQ0gyXVtDSDJdNCljNVtjSF1bY0hdW2NIXVtjSF1bY0hdNQ==

>  <s_glide_docking_method>  (1) 
confgen

>  <s_i_glide_gridfile>  (1) 
gpcr_drd2_6luq_protein_autoprepared_prepared

>  <s_lp_Force_Field>  (1) 
S-OPLS

>  <s_lp_Variant>  (1) 
DiffSBDD_10-3

>  <s_m_source_file>  (1) 
generated_generic_title2_ligand_DiffSBDD_2026-06-23_prepared.sdf

>  <GenAI_Model>  (1) 
DiffSBDD

>  <Protein>  (1) 
generic_title2

$$$$
DiffSBDD_52
     RDKit          3D

  0  0  0  0  0  0  0  0  0  0999 V3000
M  V30 BEGIN CTAB
M  V30 COUNTS 51 54 0 0 1
M  V30 BEGIN ATOM
M  V30 1 C 11.876049 9.463795 -4.559219 0
M  V30 2 F 12.105414 7.882583 -2.695159 0
M  V30 3 C 7.998830 5.340470 -11.035098 0 CFG=1
M  V30 4 C 6.741899 7.234134 -12.908901 0
M  V30 5 C 8.202007 7.014423 -12.638178 0 CFG=2
M  V30 6 C 11.375415 7.001929 -4.701187 0
M  V30 7 C 10.645507 7.732760 -9.034937 0
M  V30 8 C 6.039433 4.934996 -13.874823 0
M  V30 9 C 11.775409 8.066675 -3.985049 0
M  V30 10 N 8.178107 6.790228 -11.185042 0 CFG=2 CHG=1
M  V30 11 C 11.036013 8.485940 -6.781890 0 CFG=2
M  V30 12 O 8.175412 5.190227 -9.639369 0
M  V30 13 C 5.620299 3.607881 -13.256073 0
M  V30 14 O 11.485457 8.422889 -8.126852 0
M  V30 15 C 12.018308 9.451926 -6.086073 0
M  V30 16 C 6.016286 5.888693 -12.679268 0 CFG=1
M  V30 17 C 6.322386 3.586155 -11.897007 0
M  V30 18 C 11.372007 7.753784 -10.385135 0
M  V30 19 C 11.004750 7.062859 -6.167546 0
M  V30 20 C 9.229389 7.620558 -11.732888 0 CFG=1
M  V30 21 C 10.621851 7.062592 -11.534935 0
M  V30 22 C 6.523435 5.044767 -11.460892 0 CFG=1
M  V30 23 H 10.976021 10.010131 -4.275191 0
M  V30 24 H 12.719403 9.982068 -4.102891 0
M  V30 25 H 8.735843 4.750289 -11.581593 0
M  V30 26 H 6.600915 7.590215 -13.930167 0
M  V30 27 H 6.337481 7.990245 -12.236903 0
M  V30 28 H 8.630102 6.211107 -13.237638 0
M  V30 29 H 11.325686 6.029864 -4.230797 0
M  V30 30 H 9.679077 8.235917 -9.087750 0
M  V30 31 H 10.472135 6.701622 -8.727052 0
M  V30 32 H 7.045227 4.847519 -14.287851 0
M  V30 33 H 5.375457 5.252343 -14.678955 0
M  V30 34 H 10.035665 8.920030 -6.739236 0
M  V30 35 H 7.624920 5.819291 -9.185086 0
M  V30 36 H 5.894849 2.751599 -13.872825 0
M  V30 37 H 4.536919 3.593877 -13.132511 0
M  V30 38 H 13.043519 9.190229 -6.345994 0
M  V30 39 H 11.870500 10.461868 -6.469286 0
M  V30 40 H 4.975411 6.130309 -12.493043 0
M  V30 41 H 7.291506 3.112870 -12.037589 0
M  V30 42 H 5.775412 3.006160 -11.153546 0
M  V30 43 H 12.347863 7.286536 -10.264275 0
M  V30 44 H 11.571268 8.790213 -10.644494 0
M  V30 45 H 10.024074 6.607360 -6.311038 0
M  V30 46 H 11.723589 6.424439 -6.682093 0
M  V30 47 H 9.079110 8.666278 -11.472229 0
M  V30 48 H 10.575418 5.990254 -11.379220 0
M  V30 49 H 11.181199 7.190235 -12.461980 0
M  V30 50 H 5.863582 5.269586 -10.620124 0
M  V30 51 H 7.511015 7.352165 -10.631730 0
M  V30 END ATOM
M  V30 BEGIN BOND
M  V30 1 1 5 4
M  V30 2 1 9 1
M  V30 3 1 9 2
M  V30 4 2 9 6
M  V30 5 1 10 3
M  V30 6 1 10 5
M  V30 7 1 12 3
M  V30 8 1 13 8
M  V30 9 1 14 7
M  V30 10 1 14 11
M  V30 11 1 15 1
M  V30 12 1 15 11
M  V30 13 1 16 4
M  V30 14 1 16 8
M  V30 15 1 17 13
M  V30 16 1 18 7
M  V30 17 1 19 6
M  V30 18 1 19 11
M  V30 19 1 20 5
M  V30 20 1 20 10
M  V30 21 1 21 18
M  V30 22 1 21 20
M  V30 23 1 22 3
M  V30 24 1 22 16
M  V30 25 1 22 17
M  V30 26 1 23 1
M  V30 27 1 24 1
M  V30 28 1 3 25 CFG=3
M  V30 29 1 26 4
M  V30 30 1 27 4
M  V30 31 1 5 28 CFG=3
M  V30 32 1 29 6
M  V30 33 1 30 7
M  V30 34 1 31 7
M  V30 35 1 32 8
M  V30 36 1 33 8
M  V30 37 1 11 34 CFG=3
M  V30 38 1 35 12
M  V30 39 1 36 13
M  V30 40 1 37 13
M  V30 41 1 38 15
M  V30 42 1 39 15
M  V30 43 1 16 40 CFG=1
M  V30 44 1 41 17
M  V30 45 1 42 17
M  V30 46 1 43 18
M  V30 47 1 44 18
M  V30 48 1 45 19
M  V30 49 1 46 19
M  V30 50 1 20 47 CFG=1
M  V30 51 1 48 21
M  V30 52 1 49 21
M  V30 53 1 22 50 CFG=1
M  V30 54 1 10 51 CFG=1
M  V30 END BOND
M  V30 END CTAB
M  END
>  <i_epik_Tot_Q>  (1) 
1

>  <i_epik_Tot_abs_Q>  (1) 
1

>  <i_i_glide_confnum>  (1) 
113

>  <i_i_glide_lignum>  (1) 
85

>  <i_i_glide_posenum>  (1) 
265

>  <i_i_glide_rotatable_bonds>  (1) 
6

>  <i_lp_mmshare_version>  (1) 
72125

>  <i_m_source_file_index>  (1) 
53

>  <i_f3d_flags>  (1) 
0

>  <num_sample>  (1) 
100

>  <b_lp_Chiralities_Consistent>  (1) 
1

>  <r_epik_Charging_Adjusted_Penalty>  (1) 
0.54296395038273226

>  <r_epik_Ionization_Penalty>  (1) 
0.53316988730295212

>  <r_epik_Ionization_Penalty_Charging>  (1) 
0.022916544562111445

>  <r_epik_Ionization_Penalty_Neutral>  (1) 
0.51025334274084067

>  <r_epik_State_Penalty>  (1) 
0.52004740582062081

>  <r_glide_ring_energy>  (1) 
0

>  <r_i_docking_score>  (1) 
-6.5305971565712797

>  <r_i_glide_ecoul>  (1) 
-10.152194662136051

>  <r_i_glide_eff_state_penalty>  (1) 
0.52004740582062081

>  <r_i_glide_einternal>  (1) 
5.8440514460823465

>  <r_i_glide_emodel>  (1) 
-53.73937300481694

>  <r_i_glide_emodel_strain>  (1) 
0.06999219729283368

>  <r_i_glide_energy>  (1) 
-37.199107058742868

>  <r_i_glide_erotb>  (1) 
0.76914675799504084

>  <r_i_glide_esite>  (1) 
-0.15303850847213024

>  <r_i_glide_evdw>  (1) 
-27.046912396606814

>  <r_i_glide_gscore>  (1) 
-7.0506445623919003

>  <r_i_glide_gscore_strain>  (1) 
0

>  <r_i_glide_hbond>  (1) 
-0.24456111700954869

>  <r_i_glide_ligand_efficiency>  (1) 
-0.29684532529869451

>  <r_i_glide_ligand_efficiency_ln>  (1) 
-1.5963161543851361

>  <r_i_glide_ligand_efficiency_sa>  (1) 
-0.8317722766081348

>  <r_i_glide_lipo>  (1) 
-2.1686764449932938

>  <r_i_glide_metal>  (1) 
-0

>  <r_i_glide_rewards>  (1) 
-2.3783404307612201

>  <r_lp_Energy>  (1) 
32.431187000000001

>  <s_epik_Chemistry_Notes>  (1) 
This compound contains an acetal/aminal-like group ( X-CH(R)-Y where X, Y are N, S, or O) that may be acid/base labile, releasing an aldehyde.

>  <s_epik_cmdline>  (1) 
J2VwaWtfcHl0aG9uJywgJy1waHQnLCAnMS4wJywgJy1waCcsICc3LjQnLCAnLXRuJywgJzgnLCAnLW1hJywgJzUwMCcsICctaW1hZScsICc8aW5maWxlLm1hZT4nLCAnLW9tYWUnLCAnPG91dGZpbGUubWFlPic=

>  <s_epik_input>  (1) 
RkMxPVtDSF1bQ0gyXVtDQEBIXShbQ0gyXVtDSDJdMSlPW0NIMl1bQ0gyXVtDSDJdW0NAQEhdMk4oW0NASF0yMylbQ0BASF0oW09IXSlbQ0BIXTRbQ0BASF0oW0NIMl0zKVtDSDJdW0NIMl1bQ0gyXTQ=

>  <s_glide_docking_method>  (1) 
confgen

>  <s_i_glide_gridfile>  (1) 
gpcr_drd2_6luq_protein_autoprepared_prepared

>  <s_lp_Force_Field>  (1) 
S-OPLS

>  <s_lp_Variant>  (1) 
DiffSBDD_52-4

>  <s_m_source_file>  (1) 
generated_generic_title2_ligand_DiffSBDD_2026-06-23_prepared.sdf

>  <GenAI_Model>  (1) 
DiffSBDD

>  <Protein>  (1) 
generic_title2

$$$$
DiffSBDD_36
     RDKit          3D

  0  0  0  0  0  0  0  0  0  0999 V3000
M  V30 BEGIN CTAB
M  V30 COUNTS 49 51 0 0 1
M  V30 BEGIN ATOM
M  V30 1 C 6.503826 4.969623 -10.768811 0
M  V30 2 C 11.333533 7.936592 -6.284345 0
M  V30 3 N 8.962010 6.390458 -10.317735 0
M  V30 4 O 10.975597 7.590228 -11.584799 0 CHG=-1
M  V30 5 C 11.829158 9.875004 -5.389710 0
M  V30 6 O 7.605737 4.431307 -14.236912 0
M  V30 7 C 7.288569 4.153353 -12.884289 0 CFG=2
M  V30 8 C 11.655063 9.046180 -4.374791 0
M  V30 9 C 11.641470 9.192014 -6.559200 0
M  V30 10 C 10.175554 6.621364 -9.570940 0 CFG=2
M  V30 11 C 12.185503 8.371154 -2.131426 0
M  V30 12 C 5.847502 3.657073 -12.737589 0
M  V30 13 C 11.774982 6.618439 -3.814897 0
M  V30 14 C 11.074708 6.862715 -7.281201 0
M  V30 15 O 9.771363 4.849876 -11.770699 0
M  V30 16 C 9.865176 7.170518 -8.181610 0
M  V30 17 C 5.356878 4.228185 -11.402469 0
M  V30 18 C 6.964269 6.686686 -12.587012 0
M  V30 19 C 11.097749 7.590541 -10.348969 0
M  V30 20 C 8.832619 5.517034 -11.333332 0
M  V30 21 C 12.193478 6.971940 -2.572893 0
M  V30 22 O 11.922091 8.306077 -9.737244 0
M  V30 23 C 11.173209 7.619726 -4.784875 0 CFG=2
M  V30 24 C 7.428171 5.366935 -11.925356 0 CFG=1
M  V30 25 C 11.947405 9.365737 -3.004537 0
M  V30 26 H 6.149548 5.820410 -10.187617 0
M  V30 27 H 7.003971 4.294630 -10.070146 0
M  V30 28 H 8.134473 6.925590 -10.031183 0
M  V30 29 H 12.175408 10.885622 -5.316590 0
M  V30 30 H 7.646646 3.614104 -14.708215 0
M  V30 31 H 7.941485 3.341777 -12.559629 0
M  V30 32 H 11.772232 9.598361 -7.549688 0
M  V30 33 H 10.575352 5.631481 -9.407410 0
M  V30 34 H 12.430360 8.608770 -1.106601 0
M  V30 35 H 5.216953 4.031738 -13.545010 0
M  V30 36 H 5.797308 2.567353 -12.765338 0
M  V30 37 H 11.799561 5.590228 -4.125500 0
M  V30 38 H 10.953604 5.901318 -6.783213 0
M  V30 39 H 12.002996 6.790749 -7.839206 0
M  V30 40 H 9.640823 8.237469 -8.240693 0
M  V30 41 H 8.975487 6.700616 -7.760765 0
M  V30 42 H 4.575409 4.958672 -11.585033 0
M  V30 43 H 4.976443 3.489478 -10.703238 0
M  V30 44 H 5.984394 6.580477 -13.050979 0
M  V30 45 H 6.889692 7.495636 -11.860947 0
M  V30 46 H 7.659225 7.006613 -13.363609 0
M  V30 47 H 12.563234 6.209885 -1.901418 0
M  V30 48 H 10.095605 7.500057 -4.785342 0
M  V30 49 H 12.006583 10.389928 -2.681010 0
M  V30 END ATOM
M  V30 BEGIN BOND
M  V30 1 1 7 6
M  V30 2 2 8 5
M  V30 3 2 9 2
M  V30 4 1 9 5
M  V30 5 1 10 3
M  V30 6 1 12 7
M  V30 7 1 14 2
M  V30 8 1 16 10
M  V30 9 1 16 14
M  V30 10 1 17 1
M  V30 11 1 17 12
M  V30 12 1 19 4
M  V30 13 1 19 10
M  V30 14 1 20 3
M  V30 15 2 20 15
M  V30 16 1 21 11
M  V30 17 2 21 13
M  V30 18 2 22 19
M  V30 19 1 23 2
M  V30 20 1 23 8
M  V30 21 1 23 13
M  V30 22 1 24 1
M  V30 23 1 24 7
M  V30 24 1 24 18 CFG=3
M  V30 25 1 24 20
M  V30 26 1 25 8
M  V30 27 2 25 11
M  V30 28 1 26 1
M  V30 29 1 27 1
M  V30 30 1 28 3
M  V30 31 1 29 5
M  V30 32 1 30 6
M  V30 33 1 7 31 CFG=1
M  V30 34 1 32 9
M  V30 35 1 10 33 CFG=1
M  V30 36 1 34 11
M  V30 37 1 35 12
M  V30 38 1 36 12
M  V30 39 1 37 13
M  V30 40 1 38 14
M  V30 41 1 39 14
M  V30 42 1 40 16
M  V30 43 1 41 16
M  V30 44 1 42 17
M  V30 45 1 43 17
M  V30 46 1 44 18
M  V30 47 1 45 18
M  V30 48 1 46 18
M  V30 49 1 47 21
M  V30 50 1 23 48 CFG=3
M  V30 51 1 49 25
M  V30 END BOND
M  V30 END CTAB
M  END
>  <i_epik_Tot_Q>  (1) 
-1

>  <i_epik_Tot_abs_Q>  (1) 
1

>  <i_i_glide_confnum>  (1) 
9

>  <i_i_glide_lignum>  (1) 
61

>  <i_i_glide_posenum>  (1) 
383

>  <i_i_glide_rotatable_bonds>  (1) 
8

>  <i_lp_mmshare_version>  (1) 
72125

>  <i_m_source_file_index>  (1) 
37

>  <i_f3d_flags>  (1) 
0

>  <num_sample>  (1) 
100

>  <b_lp_Chiralities_Consistent>  (1) 
1

>  <r_epik_Charging_Adjusted_Penalty>  (1) 
6.3624129575878713e-05

>  <r_epik_Ionization_Penalty>  (1) 
6.3751974232529901e-05

>  <r_epik_Ionization_Penalty_Charging>  (1) 
6.3624129575878713e-05

>  <r_epik_Ionization_Penalty_Neutral>  (1) 
1.2784465665118319e-07

>  <r_epik_State_Penalty>  (1) 
-0

>  <r_glide_ring_energy>  (1) 
0

>  <r_i_docking_score>  (1) 
-6.5256479712299793

>  <r_i_glide_ecoul>  (1) 
-3.6976871672895117

>  <r_i_glide_eff_state_penalty>  (1) 
-0

>  <r_i_glide_einternal>  (1) 
5.4277047760290031

>  <r_i_glide_emodel>  (1) 
-40.812984864749495

>  <r_i_glide_emodel_strain>  (1) 
2.1653400412689621

>  <r_i_glide_energy>  (1) 
-33.677967162807036

>  <r_i_glide_erotb>  (1) 
0.80862173255752579

>  <r_i_glide_esite>  (1) 
-0.10000000000000001

>  <r_i_glide_evdw>  (1) 
-29.980279995517524

>  <r_i_glide_gscore>  (1) 
-6.5256479712299793

>  <r_i_glide_gscore_strain>  (1) 
0

>  <r_i_glide_hbond>  (1) 
-0.16

>  <r_i_glide_ligand_efficiency>  (1) 
-0.26102591884919918

>  <r_i_glide_ligand_efficiency_ln>  (1) 
-1.5467741270706499

>  <r_i_glide_ligand_efficiency_sa>  (1) 
-0.76324441684837052

>  <r_i_glide_lipo>  (1) 
-2.9859824122676186

>  <r_i_glide_metal>  (1) 
-0

>  <r_i_glide_rewards>  (1) 
-2.034620216650584

>  <r_lp_Energy>  (1) 
45.619743

>  <r_lp_tautomer_probability>  (1) 
1

>  <s_epik_cmdline>  (1) 
J2VwaWtfcHl0aG9uJywgJy1waHQnLCAnMS4wJywgJy1waCcsICc3LjQnLCAnLXRuJywgJzgnLCAnLW1hJywgJzUwMCcsICctaW1hZScsICc8aW5maWxlLm1hZT4nLCAnLW9tYWUnLCAnPG91dGZpbGUubWFlPic=

>  <s_epik_input>  (1) 
W09IXVtDQEBIXTFbQ0gyXVtDSDJdW0NIMl1bQ0BAXTEoW0NIM10pQyg9TylbTkhdW0NAQEhdKEMoPU8pW09IXSlbQ0gyXVtDSDJdQyg9W0NIXVtDSF09MilbQ0BIXShDMjMpW0NIXT1bQ0hdW0NIXT1bQ0hdMw==

>  <s_glide_docking_method>  (1) 
confgen

>  <s_i_glide_gridfile>  (1) 
gpcr_drd2_6luq_protein_autoprepared_prepared

>  <s_lp_Force_Field>  (1) 
S-OPLS

>  <s_lp_Variant>  (1) 
DiffSBDD_36-1

>  <s_m_source_file>  (1) 
generated_generic_title2_ligand_DiffSBDD_2026-06-23_prepared.sdf

>  <GenAI_Model>  (1) 
DiffSBDD

>  <Protein>  (1) 
generic_title2

$$$$
DiffSBDD_87
     RDKit          3D

  0  0  0  0  0  0  0  0  0  0999 V3000
M  V30 BEGIN CTAB
M  V30 COUNTS 76 79 0 0 1
M  V30 BEGIN ATOM
M  V30 1 S 5.173656 7.557231 -23.211136 0
M  V30 2 C 11.525885 6.517665 -5.079008 0
M  V30 3 C 10.030536 6.485797 -11.545267 0
M  V30 4 C 9.316288 5.990102 -9.248782 0
M  V30 5 O 5.961970 10.884612 -22.385022 0
M  V30 6 C 6.705481 5.590175 -17.771890 0
M  V30 7 C 7.581450 4.956506 -15.000345 0
M  V30 8 C 7.375430 10.923009 -22.145653 0
M  V30 9 C 4.594188 5.186512 -21.913575 0
M  V30 10 C 6.179054 6.298604 -16.654602 0
M  V30 11 C 9.375380 8.401576 -8.412914 0
M  V30 12 C 6.590977 9.647081 -22.013808 0 CFG=2
M  V30 13 O 4.847284 7.173785 -20.574490 0
M  V30 14 C 8.014912 4.680064 -13.691391 0
M  V30 15 C 6.669185 8.582159 -23.085420 0
M  V30 16 C 5.348913 6.521154 -21.733775 0 CFG=2
M  V30 17 N 8.872536 6.224844 -10.649765 0 CFG=2 CHG=1
M  V30 18 C 4.761136 7.568135 -18.213688 0
M  V30 19 C 5.194400 7.293836 -16.903276 0
M  V30 20 C 11.278068 7.245770 -6.394688 0
M  V30 21 C 5.291766 6.868818 -19.301663 0
M  V30 22 C 6.265913 5.872270 -19.078584 0
M  V30 23 C 6.175476 6.758807 -14.144217 0
M  V30 24 C 11.368482 7.487197 -9.555930 0
M  V30 25 N 10.582829 6.568699 -7.325759 0
M  V30 26 C 10.185098 7.123718 -8.633024 0 CFG=2
M  V30 27 C 10.956742 7.590236 -11.030397 0
M  V30 28 O 11.701378 8.390161 -6.559937 0
M  V30 29 C 6.801604 4.757730 -10.311130 0
M  V30 30 C 6.560737 3.586103 -22.342544 0
M  V30 31 C 8.007572 5.126604 -11.193902 0 CFG=1
M  V30 32 C 6.649040 6.002395 -15.255105 0
M  V30 33 C 7.533170 5.435030 -12.609960 0
M  V30 34 C 5.266720 4.202727 -22.888831 0
M  V30 35 C 6.615665 6.474532 -12.837632 0
M  V30 36 H 10.587058 6.158989 -4.656246 0
M  V30 37 H 12.175384 5.659035 -5.243766 0
M  V30 38 H 11.997018 7.177124 -4.349495 0
M  V30 39 H 10.575406 5.558692 -11.707136 0
M  V30 40 H 9.684491 6.796092 -12.530559 0
M  V30 41 H 8.441897 5.876308 -8.607234 0
M  V30 42 H 9.854856 5.041787 -9.217114 0
M  V30 43 H 7.450422 4.828577 -17.631492 0
M  V30 44 H 7.964434 4.360496 -15.807617 0
M  V30 45 H 7.687133 11.442562 -21.241759 0
M  V30 46 H 7.977325 11.085090 -23.038931 0
M  V30 47 H 4.467041 4.688468 -20.951791 0
M  V30 48 H 3.584323 5.405029 -22.260897 0
M  V30 49 H 8.975387 8.790212 -9.345604 0
M  V30 50 H 8.575410 8.245085 -7.694464 0
M  V30 51 H 9.991066 9.190224 -8.011129 0
M  V30 52 H 6.368111 9.307388 -21.004515 0
M  V30 53 H 8.721833 3.881522 -13.519282 0
M  V30 54 H 7.536698 7.947634 -22.903032 0
M  V30 55 H 6.834046 9.072910 -24.040125 0
M  V30 56 H 6.419481 6.353309 -21.648980 0
M  V30 57 H 4.012550 8.327005 -18.383602 0
M  V30 58 H 4.765608 7.851528 -16.091021 0
M  V30 59 H 6.681907 5.318781 -19.902757 0
M  V30 60 H 5.473839 7.559157 -14.290472 0
M  V30 61 H 12.175424 6.790229 -9.468967 0
M  V30 62 H 11.819310 8.432287 -9.248018 0
M  V30 63 H 10.277008 5.631943 -7.108044 0
M  V30 64 H 11.856396 7.590233 -11.645652 0
M  V30 65 H 10.448202 8.538784 -11.183379 0
M  V30 66 H 6.186680 3.997743 -10.795051 0
M  V30 67 H 7.103550 4.332727 -9.355305 0
M  V30 68 H 6.158836 5.612391 -10.109624 0
M  V30 69 H 6.947837 2.835063 -23.030774 0
M  V30 70 H 7.340381 4.334237 -22.205301 0
M  V30 71 H 6.389498 3.097009 -21.383241 0
M  V30 72 H 8.631394 4.232076 -11.245867 0
M  V30 73 H 4.575059 3.389031 -23.102450 0
M  V30 74 H 5.458628 4.688024 -23.846216 0
M  V30 75 H 6.244747 7.059545 -12.007546 0
M  V30 76 H 8.289676 7.056135 -10.595726 0
M  V30 END ATOM
M  V30 BEGIN BOND
M  V30 1 1 8 5
M  V30 2 2 10 6
M  V30 3 1 12 5
M  V30 4 1 12 8
M  V30 5 2 14 7
M  V30 6 1 15 1
M  V30 7 1 15 12
M  V30 8 1 16 1
M  V30 9 1 16 9
M  V30 10 1 16 13
M  V30 11 1 17 3
M  V30 12 1 17 4
M  V30 13 1 19 10
M  V30 14 2 19 18
M  V30 15 1 20 2
M  V30 16 1 21 13
M  V30 17 1 21 18
M  V30 18 1 22 6
M  V30 19 2 22 21
M  V30 20 1 25 20
M  V30 21 1 26 4
M  V30 22 1 26 11
M  V30 23 1 26 24
M  V30 24 1 26 25 CFG=1
M  V30 25 1 27 3
M  V30 26 1 27 24
M  V30 27 2 28 20
M  V30 28 1 31 17
M  V30 29 1 31 29
M  V30 30 1 32 7
M  V30 31 1 32 10
M  V30 32 2 32 23
M  V30 33 1 33 14
M  V30 34 1 33 31
M  V30 35 1 34 9
M  V30 36 1 34 30
M  V30 37 1 35 23
M  V30 38 2 35 33
M  V30 39 1 36 2
M  V30 40 1 37 2
M  V30 41 1 38 2
M  V30 42 1 39 3
M  V30 43 1 40 3
M  V30 44 1 41 4
M  V30 45 1 42 4
M  V30 46 1 43 6
M  V30 47 1 44 7
M  V30 48 1 45 8
M  V30 49 1 46 8
M  V30 50 1 47 9
M  V30 51 1 48 9
M  V30 52 1 49 11
M  V30 53 1 50 11
M  V30 54 1 51 11
M  V30 55 1 12 52 CFG=1
M  V30 56 1 53 14
M  V30 57 1 54 15
M  V30 58 1 55 15
M  V30 59 1 16 56 CFG=1
M  V30 60 1 57 18
M  V30 61 1 58 19
M  V30 62 1 59 22
M  V30 63 1 60 23
M  V30 64 1 61 24
M  V30 65 1 62 24
M  V30 66 1 63 25
M  V30 67 1 64 27
M  V30 68 1 65 27
M  V30 69 1 66 29
M  V30 70 1 67 29
M  V30 71 1 68 29
M  V30 72 1 69 30
M  V30 73 1 70 30
M  V30 74 1 71 30
M  V30 75 1 31 72 CFG=3
M  V30 76 1 73 34
M  V30 77 1 74 34
M  V30 78 1 75 35
M  V30 79 1 17 76 CFG=1
M  V30 END BOND
M  V30 END CTAB
M  END
>  <i_epik_Tot_Q>  (1) 
1

>  <i_epik_Tot_abs_Q>  (1) 
1

>  <i_i_glide_confnum>  (1) 
428

>  <i_i_glide_lignum>  (1) 
157

>  <i_i_glide_posenum>  (1) 
225

>  <i_i_glide_rotatable_bonds>  (1) 
12

>  <i_lp_mmshare_version>  (1) 
72125

>  <i_m_source_file_index>  (1) 
88

>  <i_f3d_flags>  (1) 
0

>  <num_sample>  (1) 
100

>  <b_lp_Chiralities_Consistent>  (1) 
1

>  <r_epik_Charging_Adjusted_Penalty>  (1) 
0.24591797925462006

>  <r_epik_Ionization_Penalty>  (1) 
0.12295908446121387

>  <r_epik_Ionization_Penalty_Charging>  (1) 
0.12295898962731001

>  <r_epik_Ionization_Penalty_Neutral>  (1) 
9.4833903855356945e-08

>  <r_epik_State_Penalty>  (1) 
0.12295898962731003

>  <r_glide_ring_energy>  (1) 
0

>  <r_i_docking_score>  (1) 
-6.5103978588731097

>  <r_i_glide_ecoul>  (1) 
-7.8363554016002475

>  <r_i_glide_eff_state_penalty>  (1) 
0.12295898962731003

>  <r_i_glide_einternal>  (1) 
15.124924758749044

>  <r_i_glide_emodel>  (1) 
-58.278219777325177

>  <r_i_glide_emodel_strain>  (1) 
0.051669257218051712

>  <r_i_glide_energy>  (1) 
-49.469404751648071

>  <r_i_glide_erotb>  (1) 
0.74116783978336576

>  <r_i_glide_esite>  (1) 
-0.082259775084144074

>  <r_i_glide_evdw>  (1) 
-41.63304935004782

>  <r_i_glide_gscore>  (1) 
-6.6333568485004202

>  <r_i_glide_gscore_strain>  (1) 
0

>  <r_i_glide_hbond>  (1) 
-0.32303756712956155

>  <r_i_glide_ligand_efficiency>  (1) 
-0.18601136739637456

>  <r_i_glide_ligand_efficiency_ln>  (1) 
-1.4291768205181834

>  <r_i_glide_ligand_efficiency_sa>  (1) 
-0.60845551720239321

>  <r_i_glide_lipo>  (1) 
-2.467857582809208

>  <r_i_glide_metal>  (1) 
-0

>  <r_i_glide_rewards>  (1) 
-1.2442639855184441

>  <r_lp_Energy>  (1) 
41.786876999999997

>  <r_lp_tautomer_probability>  (1) 
1

>  <s_epik_Chemistry_Notes>  (1) 
This compound contains an acetal/aminal-like group ( X-CH(R)-Y where X, Y are N, S, or O) that may be acid/base labile, releasing an aldehyde.

>  <s_epik_cmdline>  (1) 
J2VwaWtfcHl0aG9uJywgJy1waHQnLCAnMS4wJywgJy1waCcsICc3LjQnLCAnLXRuJywgJzgnLCAnLW1hJywgJzUwMCcsICctaW1hZScsICc8aW5maWxlLm1hZT4nLCAnLW9tYWUnLCAnPG91dGZpbGUubWFlPic=

>  <s_epik_input>  (1) 
W0NIMl0xT1tDQEhdMVtDSDJdU1tDQEhdKFtDSDJdW0NIMl1bQ0gzXSlPYyhbY0hdW2NIXTIpW2NIXVtjSF1jMi1jM1tjSF1bY0hdYyhbY0hdW2NIXTMpW0NASF0oW0NIM10pTihbQ0gyXVtDSDJdW0NIMl00KVtDSDJdW0NAQF00KFtDSDNdKVtOSF1DKD1PKVtDSDNd

>  <s_glide_docking_method>  (1) 
confgen

>  <s_i_glide_gridfile>  (1) 
gpcr_drd2_6luq_protein_autoprepared_prepared

>  <s_lp_Force_Field>  (1) 
S-OPLS

>  <s_lp_Variant>  (1) 
DiffSBDD_87-1

>  <s_m_source_file>  (1) 
generated_generic_title2_ligand_DiffSBDD_2026-06-23_prepared.sdf

>  <GenAI_Model>  (1) 
DiffSBDD

>  <Protein>  (1) 
generic_title2

$$$$
DiffSBDD_86
     RDKit          3D

  0  0  0  0  0  0  0  0  0  0999 V3000
M  V30 BEGIN CTAB
M  V30 COUNTS 114 117 0 0 1
M  V30 BEGIN ATOM
M  V30 1 C 13.664319 -0.353294 -18.111993 0
M  V30 2 C 14.489315 0.751060 -18.767767 0 CFG=1
M  V30 3 C 9.228988 7.131508 -7.892168 0
M  V30 4 C 4.554441 8.214266 -19.476338 0
M  V30 5 C 7.700307 3.012196 -19.460588 0 CFG=2
M  V30 6 C 7.503948 4.291213 -12.244238 0
M  V30 7 O 8.586707 0.885775 -18.710218 0
M  V30 8 C 6.798512 1.878884 -17.352921 0 CFG=2
M  V30 9 O 8.175406 -0.409780 -15.772234 0
M  V30 10 C 7.409483 0.584332 -17.944005 0 CFG=2
M  V30 11 C 7.324200 3.993567 -20.591196 0
M  V30 12 O 15.852470 0.390282 -18.785064 0
M  V30 13 N 9.568500 6.311875 -10.163648 0
M  V30 14 C 11.168476 3.636529 -17.815037 0
M  V30 15 C 11.340303 0.391075 -19.034557 0 CFG=1
M  V30 16 C 6.840761 4.427930 -14.580283 0 CFG=2
M  V30 17 O 11.814576 -0.050376 -21.744607 0
M  V30 18 C 4.292078 6.496339 -17.531417 0
M  V30 19 C 8.447155 1.698808 -19.900026 0 CFG=1
M  V30 20 C 7.623495 0.882722 -20.954033 0
M  V30 21 C 11.048384 1.794270 -19.614804 0 CFG=2
M  V30 22 O 11.791675 7.190233 -13.585021 0
M  V30 23 O 6.353138 4.182220 -11.821760 0
M  V30 24 N 10.175388 5.930992 -12.384943 0 CHG=1
M  V30 25 C 9.845175 2.048254 -20.497086 0
M  V30 26 C 6.451544 2.721257 -18.606864 0
M  V30 27 C 11.166787 6.112160 -6.576149 0
M  V30 28 O 7.845022 4.434327 -13.552524 0
M  V30 29 P 12.233874 0.749274 -20.559502 0 CFG=1
M  V30 30 C 4.586783 7.800611 -16.844962 0 CFG=2
M  V30 31 C 14.033871 1.070150 -20.199160 0
M  V30 32 C 8.216715 -0.494705 -21.287157 0
M  V30 33 C 5.115247 7.531096 -18.247442 0 CFG=2
M  V30 34 F 12.975382 6.390339 -13.526151 0
M  V30 35 C 5.549542 8.036130 -15.683357 0
M  V30 36 C 9.981421 2.551371 -21.743361 0
M  V30 37 C 11.744955 3.063793 -19.108409 0
M  V30 38 C 9.509265 5.546543 -11.281541 0
M  V30 39 C 12.222571 0.098447 -17.822769 0
M  V30 40 C 7.469147 4.071564 -15.960594 0 CFG=2
M  V30 41 C 8.717932 4.261714 -11.300791 0
M  V30 42 C 8.926029 5.990300 -8.887838 0
M  V30 43 C 7.595836 -0.648735 -17.032730 0
M  V30 44 C 7.714931 2.570974 -16.282188 0
M  V30 45 O 8.683187 4.785491 -16.096934 0
M  V30 46 C 6.573330 6.932831 -15.380117 0
M  V30 47 C 5.988578 5.734953 -14.604292 0
M  V30 48 C 10.693728 7.270095 -7.445909 0
M  V30 49 C 10.973352 7.154263 -12.443423 0
M  V30 50 H 14.130689 -0.632451 -17.167279 0
M  V30 51 H 13.682988 -1.249305 -18.731495 0
M  V30 52 H 14.423397 1.645802 -18.149079 0
M  V30 53 H 8.975346 8.080088 -8.365107 0
M  V30 54 H 8.577849 7.046562 -7.020985 0
M  V30 55 H 3.484117 8.390357 -19.365370 0
M  V30 56 H 5.050689 9.171641 -19.631127 0
M  V30 57 H 4.713894 7.594132 -20.358800 0
M  V30 58 H 8.377036 3.563345 -18.815227 0
M  V30 59 H 5.864097 1.604453 -16.862237 0
M  V30 60 H 8.175336 -1.245798 -15.312408 0
M  V30 61 H 6.672117 0.190739 -18.638255 0
M  V30 62 H 6.677761 3.531521 -21.336804 0
M  V30 63 H 6.786765 4.854573 -20.191392 0
M  V30 64 H 8.200188 4.398161 -21.095362 0
M  V30 65 H 15.936142 -0.473540 -19.167609 0
M  V30 66 H 10.086343 7.175726 -10.196560 0
M  V30 67 H 11.859224 4.348841 -17.364899 0
M  V30 68 H 10.250892 4.177803 -18.019448 0
M  V30 69 H 10.962297 2.862394 -17.078873 0
M  V30 70 H 10.590030 -0.380725 -19.191850 0
M  V30 71 H 6.147532 3.621051 -14.338613 0
M  V30 72 H 4.802358 5.590227 -17.230162 0
M  V30 73 H 3.260508 6.389078 -17.857795 0
M  V30 74 H 6.592304 0.737657 -20.644513 0
M  V30 75 H 7.516960 1.436521 -21.883936 0
M  V30 76 H 5.930135 3.647150 -18.385032 0
M  V30 77 H 5.719567 2.180307 -19.206463 0
M  V30 78 H 12.175368 6.279692 -6.208147 0
M  V30 79 H 10.513388 5.990244 -5.711987 0
M  V30 80 H 11.182902 5.190195 -7.151557 0
M  V30 81 H 3.681726 8.390219 -16.747666 0
M  V30 82 H 14.290352 2.094287 -20.472245 0
M  V30 83 H 14.572746 0.434137 -20.902904 0
M  V30 84 H 7.580821 -1.024118 -21.996437 0
M  V30 85 H 9.203980 -0.406874 -21.738236 0
M  V30 86 H 8.308402 -1.116540 -20.396674 0
M  V30 87 H 6.173825 7.300220 -18.337297 0
M  V30 88 H 4.975110 8.259225 -14.785429 0
M  V30 89 H 6.097794 8.942466 -15.937898 0
M  V30 90 H 10.955307 2.788311 -22.144551 0
M  V30 91 H 9.125086 2.731475 -22.372654 0
M  V30 92 H 12.790526 2.872662 -18.907415 0
M  V30 93 H 11.732583 3.826527 -19.887656 0
M  V30 94 H 12.242984 0.980306 -17.185304 0
M  V30 95 H 11.721485 -0.670618 -17.234791 0
M  V30 96 H 6.819778 4.483115 -16.720722 0
M  V30 97 H 8.366490 4.006627 -10.304935 0
M  V30 98 H 9.375865 3.448147 -11.607885 0
M  V30 99 H 7.850621 5.896866 -9.037830 0
M  V30 100 H 9.282113 5.031845 -8.509340 0
M  V30 101 H 8.175034 -1.410987 -17.554730 0
M  V30 102 H 6.618192 -1.091611 -16.836928 0
M  V30 103 H 7.659361 2.016975 -15.345318 0
M  V30 104 H 8.744449 2.444668 -16.613301 0
M  V30 105 H 9.294308 4.447395 -15.460942 0
M  V30 106 H 7.395855 7.348197 -14.796126 0
M  V30 107 H 6.994638 6.634872 -16.333126 0
M  V30 108 H 5.018974 5.499244 -15.031382 0
M  V30 109 H 5.752184 6.056440 -13.590260 0
M  V30 110 H 11.352745 7.381070 -8.307777 0
M  V30 111 H 10.792193 8.192109 -6.871383 0
M  V30 112 H 10.272624 7.990058 -12.456991 0
M  V30 113 H 11.599333 7.251202 -11.556055 0
M  V30 114 H 10.144406 5.351320 -13.213245 0
M  V30 END ATOM
M  V30 BEGIN BOND
M  V30 1 1 2 1
M  V30 2 1 10 7
M  V30 3 1 10 8
M  V30 4 1 11 5
M  V30 5 1 12 2
M  V30 6 1 19 5
M  V30 7 1 19 7
M  V30 8 1 19 20 CFG=3
M  V30 9 1 21 15
M  V30 10 2 23 6
M  V30 11 1 25 19
M  V30 12 1 25 21
M  V30 13 1 26 5
M  V30 14 1 26 8
M  V30 15 1 28 6
M  V30 16 1 28 16
M  V30 17 1 29 15
M  V30 18 2 29 17
M  V30 19 1 29 21
M  V30 20 1 30 18
M  V30 21 1 31 2
M  V30 22 1 29 31 CFG=1
M  V30 23 1 32 20
M  V30 24 1 33 4
M  V30 25 1 33 18
M  V30 26 1 33 30
M  V30 27 1 34 22
M  V30 28 1 35 30
M  V30 29 2 36 25
M  V30 30 1 37 14
M  V30 31 1 21 37 CFG=1
M  V30 32 1 38 13
M  V30 33 2 38 24
M  V30 34 1 39 1
M  V30 35 1 39 15
M  V30 36 1 40 16
M  V30 37 1 41 6
M  V30 38 1 41 38
M  V30 39 1 42 3
M  V30 40 1 42 13
M  V30 41 1 43 9
M  V30 42 1 43 10
M  V30 43 1 44 8
M  V30 44 1 44 40
M  V30 45 1 45 40
M  V30 46 1 46 35
M  V30 47 1 47 16
M  V30 48 1 47 46
M  V30 49 1 48 3
M  V30 50 1 48 27
M  V30 51 1 49 22
M  V30 52 1 49 24
M  V30 53 1 50 1
M  V30 54 1 51 1
M  V30 55 1 2 52 CFG=1
M  V30 56 1 53 3
M  V30 57 1 54 3
M  V30 58 1 55 4
M  V30 59 1 56 4
M  V30 60 1 57 4
M  V30 61 1 5 58 CFG=1
M  V30 62 1 8 59 CFG=1
M  V30 63 1 60 9
M  V30 64 1 10 61 CFG=3
M  V30 65 1 62 11
M  V30 66 1 63 11
M  V30 67 1 64 11
M  V30 68 1 65 12
M  V30 69 1 66 13
M  V30 70 1 67 14
M  V30 71 1 68 14
M  V30 72 1 69 14
M  V30 73 1 15 70 CFG=3
M  V30 74 1 16 71 CFG=1
M  V30 75 1 72 18
M  V30 76 1 73 18
M  V30 77 1 74 20
M  V30 78 1 75 20
M  V30 79 1 76 26
M  V30 80 1 77 26
M  V30 81 1 78 27
M  V30 82 1 79 27
M  V30 83 1 80 27
M  V30 84 1 30 81 CFG=3
M  V30 85 1 82 31
M  V30 86 1 83 31
M  V30 87 1 84 32
M  V30 88 1 85 32
M  V30 89 1 86 32
M  V30 90 1 33 87 CFG=1
M  V30 91 1 88 35
M  V30 92 1 89 35
M  V30 93 1 90 36
M  V30 94 1 91 36
M  V30 95 1 92 37
M  V30 96 1 93 37
M  V30 97 1 94 39
M  V30 98 1 95 39
M  V30 99 1 40 96 CFG=3
M  V30 100 1 97 41
M  V30 101 1 98 41
M  V30 102 1 99 42
M  V30 103 1 100 42
M  V30 104 1 101 43
M  V30 105 1 102 43
M  V30 106 1 103 44
M  V30 107 1 104 44
M  V30 108 1 105 45
M  V30 109 1 106 46
M  V30 110 1 107 46
M  V30 111 1 108 47
M  V30 112 1 109 47
M  V30 113 1 110 48
M  V30 114 1 111 48
M  V30 115 1 112 49
M  V30 116 1 113 49
M  V30 117 1 114 24
M  V30 END BOND
M  V30 END CTAB
M  END
>  <i_epik_Tot_Q>  (1) 
1

>  <i_epik_Tot_abs_Q>  (1) 
1

>  <i_i_glide_confnum>  (1) 
5493

>  <i_i_glide_lignum>  (1) 
153

>  <i_i_glide_posenum>  (1) 
180

>  <i_i_glide_rotatable_bonds>  (1) 
25

>  <i_lp_mmshare_version>  (1) 
72125

>  <i_m_source_file_index>  (1) 
87

>  <i_f3d_flags>  (1) 
0

>  <num_sample>  (1) 
100

>  <b_lp_Chiralities_Consistent>  (1) 
1

>  <r_epik_Charging_Adjusted_Penalty>  (1) 
0.16001273794586685

>  <r_epik_Ionization_Penalty>  (1) 
0.080843455150849161

>  <r_epik_Ionization_Penalty_Charging>  (1) 
0.080842825825004877

>  <r_epik_Ionization_Penalty_Neutral>  (1) 
6.2932584428919515e-07

>  <r_epik_State_Penalty>  (1) 
0.079169912120861954

>  <r_glide_ring_energy>  (1) 
0

>  <r_i_docking_score>  (1) 
-6.5088290840623992

>  <r_i_glide_ecoul>  (1) 
-8.7403333911995009

>  <r_i_glide_eff_state_penalty>  (1) 
0.079169912120861954

>  <r_i_glide_einternal>  (1) 
37.971776715700273

>  <r_i_glide_emodel>  (1) 
-39.877246270211863

>  <r_i_glide_emodel_strain>  (1) 
2.836276161072746

>  <r_i_glide_energy>  (1) 
-44.701171432192474

>  <r_i_glide_erotb>  (1) 
0.57386026422142977

>  <r_i_glide_esite>  (1) 
-0.078165159093107284

>  <r_i_glide_evdw>  (1) 
-35.960838040992975

>  <r_i_glide_gscore>  (1) 
-6.587998996183261

>  <r_i_glide_gscore_strain>  (1) 
0

>  <r_i_glide_hbond>  (1) 
-0.47252598200046037

>  <r_i_glide_ligand_efficiency>  (1) 
-0.13283324661351836

>  <r_i_glide_ligand_efficiency_ln>  (1) 
-1.3305535950648701

>  <r_i_glide_ligand_efficiency_sa>  (1) 
-0.48607745781373729

>  <r_i_glide_lipo>  (1) 
-2.8586814816864767

>  <r_i_glide_metal>  (1) 
-0

>  <r_i_glide_rewards>  (1) 
-0.64339472689507216

>  <r_lp_Energy>  (1) 
50.891874999999999

>  <s_epik_Chemistry_Notes>  (1) 
This compound has an ester and may undergo hydrolysis at high or low pH. This compound has an imine and may undergo hydrolysis. This compound contains an acetal/aminal-like group ( X-CH(R)-Y where X, Y are N, S, or O) that may be acid/base labile, releasing an aldehyde.

>  <s_epik_cmdline>  (1) 
J2VwaWtfcHl0aG9uJywgJy1waHQnLCAnMS4wJywgJy1waCcsICc3LjQnLCAnLXRuJywgJzgnLCAnLW1hJywgJzUwMCcsICctaW1hZScsICc8aW5maWxlLm1hZT4nLCAnLW9tYWUnLCAnPG91dGZpbGUubWFlPic=

>  <s_epik_input>  (1) 
W09IXVtDQEBIXShbQ0gyXTEpW0NIMl1bQ0gyXVtDQEhdKFAxMj1PKVtDQEBdMihbQ0gyXVtDSDNdKUMoPVtDSDJdKVtDQF0zKFtDSDJdW0NIM10pW0NAQEhdKFtDSDNdKVtDSDJdW0NAQEhdKFtDQEBIXShPMylbQ0gyXVtPSF0pW0NIMl1bQ0BIXShbT0hdKVtDQEhdKFtDSDJdW0NIMl1bQ0gyXVtDQEBIXTRbQ0gyXVtDQEhdNFtDSDNdKU9DKD1PKVtDSDJdQyg9TlxbQ0gyXU9GKVxbTkhdW0NIMl1bQ0gyXVtDSDJdW0NIM10=

>  <s_glide_docking_method>  (1) 
confgen

>  <s_i_glide_gridfile>  (1) 
gpcr_drd2_6luq_protein_autoprepared_prepared

>  <s_lp_Force_Field>  (1) 
S-OPLS

>  <s_lp_Variant>  (1) 
DiffSBDD_86-1

>  <s_m_source_file>  (1) 
generated_generic_title2_ligand_DiffSBDD_2026-06-23_prepared.sdf

>  <GenAI_Model>  (1) 
DiffSBDD

>  <Protein>  (1) 
generic_title2

$$$$
DiffSBDD_33
     RDKit          3D

  0  0  0  0  0  0  0  0  0  0999 V3000
M  V30 BEGIN CTAB
M  V30 COUNTS 48 50 0 0 1
M  V30 BEGIN ATOM
M  V30 1 C 6.773181 5.428397 -15.540957 0
M  V30 2 C 10.247737 7.838858 -8.700009 0
M  V30 3 C 7.783070 4.621541 -16.152453 0 CFG=1
M  V30 4 C 9.694984 6.880579 -6.432598 0
M  V30 5 N 7.553636 3.959382 -14.846009 0
M  V30 6 C 6.480532 4.810846 -14.226283 0 CFG=1
M  V30 7 C 11.415458 8.722193 -6.612490 0
M  V30 8 O 6.698235 2.058682 -13.917679 0 CHG=-1
M  V30 9 C 8.896920 4.609223 -17.190906 0 CFG=1
M  V30 10 C 9.841374 6.560401 -7.932180 0
M  V30 11 N 8.575410 5.990226 -8.442416 0 CHG=1
M  V30 12 S 7.144116 5.690669 -12.772714 0
M  V30 13 C 8.632094 5.337458 -9.764099 0
M  V30 14 C 8.900362 5.498744 -18.414087 0
M  V30 15 C 11.532605 8.463786 -8.125483 0
M  V30 16 C 10.996649 7.453297 -5.852474 0
M  V30 17 C 7.242369 4.806578 -10.140482 0
M  V30 18 O 9.064959 5.262543 -15.953642 0
M  V30 19 O 7.886189 1.893849 -15.757190 0
M  V30 20 F 12.575407 9.190226 -6.151107 0
M  V30 21 F 10.497628 9.652382 -6.385024 0
M  V30 22 C 7.140634 4.318436 -11.587231 0
M  V30 23 C 6.175404 6.521202 -16.046634 0
M  V30 24 C 7.375411 2.569894 -14.837205 0
M  V30 25 H 10.404369 7.625572 -9.757029 0
M  V30 26 H 9.437670 8.569107 -8.652404 0
M  V30 27 H 8.885145 7.597993 -6.289542 0
M  V30 28 H 9.413426 5.990228 -5.873903 0
M  V30 29 H 5.514061 4.329088 -14.070563 0
M  V30 30 H 9.457949 3.681967 -17.289297 0
M  V30 31 H 10.620502 5.804874 -8.046784 0
M  V30 32 H 7.888371 6.744917 -8.534618 0
M  V30 33 H 9.361923 4.526483 -9.755764 0
M  V30 34 H 8.960046 6.062462 -10.508228 0
M  V30 35 H 8.497148 4.956304 -19.269202 0
M  V30 36 H 8.297121 6.390214 -18.251439 0
M  V30 37 H 9.919180 5.808651 -18.645616 0
M  V30 38 H 12.373259 7.794550 -8.313359 0
M  V30 39 H 11.760722 9.393439 -8.648584 0
M  V30 40 H 11.775409 6.694690 -5.918559 0
M  V30 41 H 10.871694 7.674475 -4.792256 0
M  V30 42 H 6.491842 5.583737 -9.985022 0
M  V30 43 H 6.975391 3.990226 -9.468940 0
M  V30 44 H 6.204517 3.772027 -11.709032 0
M  V30 45 H 7.944576 3.623784 -11.833775 0
M  V30 46 H 6.441539 6.901515 -17.020443 0
M  V30 47 H 5.413687 7.045880 -15.489386 0
M  V30 48 H 8.215877 5.328633 -7.771785 0
M  V30 END ATOM
M  V30 BEGIN BOND
M  V30 1 1 3 1
M  V30 2 1 5 3
M  V30 3 1 6 1
M  V30 4 1 6 5
M  V30 5 1 9 3
M  V30 6 1 10 2
M  V30 7 1 10 4
M  V30 8 1 11 10
M  V30 9 1 12 6
M  V30 10 1 13 11
M  V30 11 1 14 9
M  V30 12 1 15 2
M  V30 13 1 15 7
M  V30 14 1 16 4
M  V30 15 1 16 7
M  V30 16 1 17 13
M  V30 17 1 3 18 CFG=3
M  V30 18 1 18 9
M  V30 19 1 20 7
M  V30 20 1 21 7
M  V30 21 1 22 12
M  V30 22 1 22 17
M  V30 23 2 23 1
M  V30 24 1 24 5
M  V30 25 1 24 8
M  V30 26 2 24 19
M  V30 27 1 25 2
M  V30 28 1 26 2
M  V30 29 1 27 4
M  V30 30 1 28 4
M  V30 31 1 6 29 CFG=1
M  V30 32 1 9 30 CFG=3
M  V30 33 1 31 10
M  V30 34 1 32 11
M  V30 35 1 33 13
M  V30 36 1 34 13
M  V30 37 1 35 14
M  V30 38 1 36 14
M  V30 39 1 37 14
M  V30 40 1 38 15
M  V30 41 1 39 15
M  V30 42 1 40 16
M  V30 43 1 41 16
M  V30 44 1 42 17
M  V30 45 1 43 17
M  V30 46 1 44 22
M  V30 47 1 45 22
M  V30 48 1 46 23
M  V30 49 1 47 23
M  V30 50 1 48 11
M  V30 END BOND
M  V30 END CTAB
M  END
>  <i_epik_Tot_Q>  (1) 
0

>  <i_epik_Tot_abs_Q>  (1) 
2

>  <i_i_glide_confnum>  (1) 
280

>  <i_i_glide_lignum>  (1) 
56

>  <i_i_glide_posenum>  (1) 
222

>  <i_i_glide_rotatable_bonds>  (1) 
7

>  <i_lp_mmshare_version>  (1) 
72125

>  <i_m_source_file_index>  (1) 
34

>  <i_f3d_flags>  (1) 
0

>  <num_sample>  (1) 
100

>  <b_lp_Chiralities_Consistent>  (1) 
1

>  <r_epik_Charging_Adjusted_Penalty>  (1) 
0.0028136040477262391

>  <r_epik_Ionization_Penalty>  (1) 
0.0028136042679479389

>  <r_epik_Ionization_Penalty_Charging>  (1) 
0.0028136040477262391

>  <r_epik_Ionization_Penalty_Neutral>  (1) 
2.2022169967552159e-10

>  <r_epik_State_Penalty>  (1) 
-0

>  <r_glide_ring_energy>  (1) 
0

>  <r_i_docking_score>  (1) 
-6.5083339087531833

>  <r_i_glide_ecoul>  (1) 
-4.1167010836821536

>  <r_i_glide_eff_state_penalty>  (1) 
-0

>  <r_i_glide_einternal>  (1) 
5.2334189557355764

>  <r_i_glide_emodel>  (1) 
-46.80722606737865

>  <r_i_glide_emodel_strain>  (1) 
0

>  <r_i_glide_energy>  (1) 
-32.428743359955014

>  <r_i_glide_erotb>  (1) 
0.51160899165852303

>  <r_i_glide_esite>  (1) 
-0.082056398868909169

>  <r_i_glide_evdw>  (1) 
-28.312042276272862

>  <r_i_glide_gscore>  (1) 
-6.5083339087531833

>  <r_i_glide_gscore_strain>  (1) 
0

>  <r_i_glide_hbond>  (1) 
-0.31611971232945213

>  <r_i_glide_ligand_efficiency>  (1) 
-0.27118057953138264

>  <r_i_glide_ligand_efficiency_ln>  (1) 
-1.5577429523475466

>  <r_i_glide_ligand_efficiency_sa>  (1) 
-0.78222014860970124

>  <r_i_glide_lipo>  (1) 
-1.4156838806994168

>  <r_i_glide_metal>  (1) 
-0

>  <r_i_glide_rewards>  (1) 
-3.1729756321479621

>  <r_lp_Energy>  (1) 
17.488744999999998

>  <r_lp_tautomer_probability>  (1) 
1

>  <s_epik_Chemistry_Notes>  (1) 
This compound contains an acetal/aminal-like group ( X-CH(R)-Y where X, Y are N, S, or O) that may be acid/base labile, releasing an aldehyde.

>  <s_epik_cmdline>  (1) 
J2VwaWtfcHl0aG9uJywgJy1waHQnLCAnMS4wJywgJy1waCcsICc3LjQnLCAnLXRuJywgJzgnLCAnLW1hJywgJzUwMCcsICctaW1hZScsICc8aW5maWxlLm1hZT4nLCAnLW9tYWUnLCAnPG91dGZpbGUubWFlPic=

>  <s_epik_input>  (1) 
W0NIM11bQ0BASF0oTzEpQzEyQyg9W0NIMl0pW0NAQEhdKE4yQyg9TylbT0hdKVNbQ0gyXVtDSDJdW0NIMl1bTkhdW0NIXShbQ0gyXVtDSDJdMylbQ0gyXVtDSDJdQzMoRilG

>  <s_glide_docking_method>  (1) 
confgen

>  <s_i_glide_gridfile>  (1) 
gpcr_drd2_6luq_protein_autoprepared_prepared

>  <s_lp_Force_Field>  (1) 
S-OPLS

>  <s_lp_Variant>  (1) 
DiffSBDD_33-1

>  <s_m_source_file>  (1) 
generated_generic_title2_ligand_DiffSBDD_2026-06-23_prepared.sdf

>  <GenAI_Model>  (1) 
DiffSBDD

>  <Protein>  (1) 
generic_title2

$$$$
DiffSBDD_36
     RDKit          3D

  0  0  0  0  0  0  0  0  0  0999 V3000
M  V30 BEGIN CTAB
M  V30 COUNTS 49 51 0 0 1
M  V30 BEGIN ATOM
M  V30 1 C 8.010108 6.422399 -13.790595 0
M  V30 2 C 10.452806 7.503154 -5.998056 0
M  V30 3 N 8.911911 6.337771 -10.389603 0
M  V30 4 O 10.143589 8.793148 -9.585025 0 CHG=-1
M  V30 5 C 11.248862 9.499994 -5.519564 0
M  V30 6 O 5.810959 5.419247 -11.041861 0
M  V30 7 C 6.500137 6.210953 -11.991353 0 CFG=2
M  V30 8 C 11.785663 8.681546 -4.628152 0
M  V30 9 C 10.426808 8.779246 -6.352792 0
M  V30 10 C 9.870290 6.466143 -9.286165 0 CFG=2
M  V30 11 C 12.702197 8.298005 -2.443657 0
M  V30 12 C 5.635479 6.427613 -13.238369 0
M  V30 13 C 11.375410 6.508641 -3.484270 0
M  V30 14 C 9.695379 6.372323 -6.658880 0
M  V30 15 O 10.175410 5.370455 -11.985025 0
M  V30 16 C 9.015081 6.653892 -8.003205 0
M  V30 17 C 6.616096 6.628112 -14.395427 0
M  V30 18 C 7.683883 4.105501 -12.869968 0
M  V30 19 C 10.746638 7.709095 -9.507811 0
M  V30 20 C 9.084785 5.765780 -11.593287 0
M  V30 21 C 12.006262 7.009546 -2.396730 0
M  V30 22 O 11.989627 7.590222 -9.573452 0
M  V30 23 C 11.436352 7.175745 -4.838186 0 CFG=1
M  V30 24 C 7.830741 5.604576 -12.501490 0 CFG=1
M  V30 25 C 12.575399 9.107123 -3.510221 0
M  V30 26 H 8.701311 5.966039 -14.499662 0
M  V30 27 H 8.400045 7.404543 -13.524338 0
M  V30 28 H 8.017951 6.784713 -10.184640 0
M  V30 29 H 11.361177 10.574458 -5.531446 0
M  V30 30 H 6.192840 5.568132 -10.187245 0
M  V30 31 H 6.684081 7.204242 -11.585024 0
M  V30 32 H 9.830953 9.191020 -7.148312 0
M  V30 33 H 10.480534 5.573205 -9.185027 0
M  V30 34 H 13.276874 8.627205 -1.590104 0
M  V30 35 H 5.011465 5.554781 -13.438022 0
M  V30 36 H 4.975410 7.285331 -13.110772 0
M  V30 37 H 10.848212 5.590226 -3.422837 0
M  V30 38 H 8.953378 6.017403 -5.945138 0
M  V30 39 H 10.409704 5.568871 -6.799277 0
M  V30 40 H 8.575410 7.644582 -7.977527 0
M  V30 41 H 8.175404 5.961889 -8.062154 0
M  V30 42 H 6.424781 5.894326 -15.179275 0
M  V30 43 H 6.519486 7.618239 -14.842476 0
M  V30 44 H 6.835282 3.920578 -13.527538 0
M  V30 45 H 8.571651 3.727075 -13.378548 0
M  V30 46 H 7.537607 3.490867 -11.985005 0
M  V30 47 H 11.969675 6.460751 -1.471720 0
M  V30 48 H 12.175410 6.599006 -5.369155 0
M  V30 49 H 13.040141 10.070402 -3.510056 0
M  V30 END ATOM
M  V30 BEGIN BOND
M  V30 1 1 7 6
M  V30 2 2 8 5
M  V30 3 2 9 2
M  V30 4 1 9 5
M  V30 5 1 10 3
M  V30 6 1 12 7
M  V30 7 1 14 2
M  V30 8 1 16 10
M  V30 9 1 16 14
M  V30 10 1 17 1
M  V30 11 1 17 12
M  V30 12 1 19 4
M  V30 13 1 19 10
M  V30 14 1 20 3
M  V30 15 2 20 15
M  V30 16 1 21 11
M  V30 17 2 21 13
M  V30 18 2 22 19
M  V30 19 1 23 2
M  V30 20 1 23 8
M  V30 21 1 23 13
M  V30 22 1 24 1
M  V30 23 1 24 7
M  V30 24 1 24 18 CFG=3
M  V30 25 1 24 20
M  V30 26 1 25 8
M  V30 27 2 25 11
M  V30 28 1 26 1
M  V30 29 1 27 1
M  V30 30 1 28 3
M  V30 31 1 29 5
M  V30 32 1 30 6
M  V30 33 1 7 31 CFG=1
M  V30 34 1 32 9
M  V30 35 1 10 33 CFG=1
M  V30 36 1 34 11
M  V30 37 1 35 12
M  V30 38 1 36 12
M  V30 39 1 37 13
M  V30 40 1 38 14
M  V30 41 1 39 14
M  V30 42 1 40 16
M  V30 43 1 41 16
M  V30 44 1 42 17
M  V30 45 1 43 17
M  V30 46 1 44 18
M  V30 47 1 45 18
M  V30 48 1 46 18
M  V30 49 1 47 21
M  V30 50 1 23 48 CFG=3
M  V30 51 1 49 25
M  V30 END BOND
M  V30 END CTAB
M  END
>  <i_epik_Tot_Q>  (1) 
-1

>  <i_epik_Tot_abs_Q>  (1) 
1

>  <i_i_glide_confnum>  (1) 
114

>  <i_i_glide_lignum>  (1) 
62

>  <i_i_glide_posenum>  (1) 
101

>  <i_i_glide_rotatable_bonds>  (1) 
8

>  <i_lp_mmshare_version>  (1) 
72125

>  <i_m_source_file_index>  (1) 
37

>  <i_f3d_flags>  (1) 
0

>  <num_sample>  (1) 
100

>  <b_lp_Chiralities_Consistent>  (1) 
1

>  <r_epik_Charging_Adjusted_Penalty>  (1) 
6.3624129575878713e-05

>  <r_epik_Ionization_Penalty>  (1) 
6.3751974232529901e-05

>  <r_epik_Ionization_Penalty_Charging>  (1) 
6.3624129575878713e-05

>  <r_epik_Ionization_Penalty_Neutral>  (1) 
1.2784465665118319e-07

>  <r_epik_State_Penalty>  (1) 
-0

>  <r_glide_ring_energy>  (1) 
0

>  <r_i_docking_score>  (1) 
-6.4973754207071446

>  <r_i_glide_ecoul>  (1) 
-5.169491006825635

>  <r_i_glide_eff_state_penalty>  (1) 
-0

>  <r_i_glide_einternal>  (1) 
9.1509274565033376

>  <r_i_glide_emodel>  (1) 
-42.864601740879422

>  <r_i_glide_emodel_strain>  (1) 
0.40736978909333743

>  <r_i_glide_energy>  (1) 
-36.726061113203485

>  <r_i_glide_erotb>  (1) 
0.80862173255752579

>  <r_i_glide_esite>  (1) 
-0.10068185469774477

>  <r_i_glide_evdw>  (1) 
-31.556570106377851

>  <r_i_glide_gscore>  (1) 
-6.4973754207071446

>  <r_i_glide_gscore_strain>  (1) 
0

>  <r_i_glide_hbond>  (1) 
-0.16

>  <r_i_glide_ligand_efficiency>  (1) 
-0.25989501682828581

>  <r_i_glide_ligand_efficiency_ln>  (1) 
-1.5400726853367686

>  <r_i_glide_ligand_efficiency_sa>  (1) 
-0.75993763927903901

>  <r_i_glide_lipo>  (1) 
-2.8252379285008007

>  <r_i_glide_metal>  (1) 
-0

>  <r_i_glide_rewards>  (1) 
-1.8668252137233872

>  <r_lp_Energy>  (1) 
46.703179999999996

>  <r_lp_tautomer_probability>  (1) 
1

>  <s_epik_cmdline>  (1) 
J2VwaWtfcHl0aG9uJywgJy1waHQnLCAnMS4wJywgJy1waCcsICc3LjQnLCAnLXRuJywgJzgnLCAnLW1hJywgJzUwMCcsICctaW1hZScsICc8aW5maWxlLm1hZT4nLCAnLW9tYWUnLCAnPG91dGZpbGUubWFlPic=

>  <s_epik_input>  (1) 
W09IXVtDQEBIXTFbQ0gyXVtDSDJdW0NIMl1bQ0BAXTEoW0NIM10pQyg9TylbTkhdW0NAQEhdKEMoPU8pW09IXSlbQ0gyXVtDSDJdQyg9W0NIXVtDSF09MilbQ0BIXShDMjMpW0NIXT1bQ0hdW0NIXT1bQ0hdMw==

>  <s_glide_docking_method>  (1) 
confgen

>  <s_i_glide_gridfile>  (1) 
gpcr_drd2_6luq_protein_autoprepared_prepared

>  <s_lp_Force_Field>  (1) 
S-OPLS

>  <s_lp_Variant>  (1) 
DiffSBDD_36-2

>  <s_m_source_file>  (1) 
generated_generic_title2_ligand_DiffSBDD_2026-06-23_prepared.sdf

>  <GenAI_Model>  (1) 
DiffSBDD

>  <Protein>  (1) 
generic_title2

$$$$
DiffSBDD_87
     RDKit          3D

  0  0  0  0  0  0  0  0  0  0999 V3000
M  V30 BEGIN CTAB
M  V30 COUNTS 76 79 0 0 1
M  V30 BEGIN ATOM
M  V30 1 S 7.104832 7.214539 -21.684320 0
M  V30 2 C 11.638610 6.927070 -3.973151 0
M  V30 3 C 10.140817 7.221157 -10.528158 0
M  V30 4 C 9.715807 6.134792 -8.321736 0
M  V30 5 O 10.676210 7.134744 -21.652731 0
M  V30 6 C 7.260944 5.292747 -16.951237 0
M  V30 7 C 8.349806 5.045639 -14.190626 0
M  V30 8 C 11.049488 7.604431 -20.350086 0
M  V30 9 C 4.744908 5.789753 -21.977797 0
M  V30 10 C 6.710144 6.040352 -15.874767 0
M  V30 11 C 9.037093 8.324038 -7.229662 0
M  V30 12 C 9.687554 7.880793 -20.930382 0 CFG=2
M  V30 13 O 5.230162 6.532375 -19.810077 0
M  V30 14 C 8.801361 4.865393 -12.868278 0
M  V30 15 C 8.466515 7.103495 -20.492019 0
M  V30 16 C 5.889914 6.048737 -20.980493 0 CFG=2
M  V30 17 N 9.183552 6.446841 -9.687058 0 CFG=2 CHG=1
M  V30 18 C 5.178646 7.107308 -17.480504 0
M  V30 19 C 5.657773 6.953731 -16.166739 0
M  V30 20 C 11.237062 7.629272 -5.263639 0
M  V30 21 C 5.729794 6.361596 -18.531354 0
M  V30 22 C 6.774812 5.448995 -18.261740 0
M  V30 23 C 6.569988 6.502237 -13.375995 0
M  V30 24 C 11.320767 8.032664 -8.379220 0
M  V30 25 N 10.724022 6.848434 -6.238913 0
M  V30 26 C 10.215530 7.366450 -7.527099 0 CFG=2
M  V30 27 C 10.791403 8.396443 -9.775341 0
M  V30 28 O 11.379835 8.846308 -5.373653 0
M  V30 29 C 7.375422 4.748266 -9.581769 0
M  V30 30 C 5.520373 3.542678 -22.983960 0
M  V30 31 C 8.593061 5.252730 -10.363129 0 CFG=1
M  V30 32 C 7.216696 5.864614 -14.469909 0
M  V30 33 C 8.134831 5.490796 -11.802339 0
M  V30 34 C 5.138919 5.007369 -23.244813 0
M  V30 35 C 7.024745 6.312398 -12.061336 0
M  V30 36 H 10.876719 6.210100 -3.665784 0
M  V30 37 H 12.575377 6.400439 -4.100761 0
M  V30 38 H 11.775393 7.648758 -3.167166 0
M  V30 39 H 10.906043 6.575949 -10.945681 0
M  V30 40 H 9.610890 7.632573 -11.388634 0
M  V30 41 H 8.949172 5.662043 -7.712073 0
M  V30 42 H 10.521456 5.404825 -8.419111 0
M  V30 43 H 8.053272 4.588675 -16.774386 0
M  V30 44 H 8.872155 4.548992 -14.988314 0
M  V30 45 H 11.800594 8.390242 -20.352884 0
M  V30 46 H 11.157589 6.823678 -19.599983 0
M  V30 47 H 3.949622 5.240846 -21.471549 0
M  V30 48 H 4.305090 6.744835 -22.267137 0
M  V30 49 H 8.575417 8.720435 -8.127910 0
M  V30 50 H 8.263821 7.839728 -6.633848 0
M  V30 51 H 9.363870 9.190228 -6.671420 0
M  V30 52 H 9.507891 8.885033 -21.309744 0
M  V30 53 H 9.655712 4.231497 -12.675230 0
M  V30 54 H 8.128669 7.502105 -19.537193 0
M  V30 55 H 8.741085 6.059021 -20.344062 0
M  V30 56 H 6.369154 5.088020 -20.831215 0
M  V30 57 H 4.378741 7.805566 -17.681076 0
M  V30 58 H 5.215046 7.542068 -15.384341 0
M  V30 59 H 7.208680 4.862962 -19.050536 0
M  V30 60 H 5.710624 7.126134 -13.539435 0
M  V30 61 H 12.173312 7.360982 -8.479083 0
M  V30 62 H 11.700013 8.935979 -7.901059 0
M  V30 63 H 10.641141 5.855830 -6.069464 0
M  V30 64 H 11.600007 8.812051 -10.377011 0
M  V30 65 H 10.056232 9.190226 -9.668458 0
M  V30 66 H 6.832870 3.990186 -10.142394 0
M  V30 67 H 7.616803 4.315906 -8.613794 0
M  V30 68 H 6.680507 5.570913 -9.417022 0
M  V30 69 H 5.693157 3.015744 -23.921693 0
M  V30 70 H 6.433769 3.457907 -22.395767 0
M  V30 71 H 4.727979 3.014664 -22.454940 0
M  V30 72 H 9.347395 4.463518 -10.378734 0
M  V30 73 H 4.289036 5.020588 -23.926923 0
M  V30 74 H 5.950365 5.512794 -23.769076 0
M  V30 75 H 6.506386 6.790260 -11.244877 0
M  V30 76 H 8.381985 7.070811 -9.547235 0
M  V30 END ATOM
M  V30 BEGIN BOND
M  V30 1 1 8 5
M  V30 2 2 10 6
M  V30 3 1 12 5
M  V30 4 1 12 8
M  V30 5 2 14 7
M  V30 6 1 15 1
M  V30 7 1 15 12
M  V30 8 1 16 1
M  V30 9 1 16 9
M  V30 10 1 16 13
M  V30 11 1 17 3
M  V30 12 1 17 4
M  V30 13 1 19 10
M  V30 14 2 19 18
M  V30 15 1 20 2
M  V30 16 1 21 13
M  V30 17 1 21 18
M  V30 18 1 22 6
M  V30 19 2 22 21
M  V30 20 1 25 20
M  V30 21 1 26 4
M  V30 22 1 26 11
M  V30 23 1 26 24
M  V30 24 1 26 25 CFG=1
M  V30 25 1 27 3
M  V30 26 1 27 24
M  V30 27 2 28 20
M  V30 28 1 31 17
M  V30 29 1 31 29
M  V30 30 1 32 7
M  V30 31 1 32 10
M  V30 32 2 32 23
M  V30 33 1 33 14
M  V30 34 1 33 31
M  V30 35 1 34 9
M  V30 36 1 34 30
M  V30 37 1 35 23
M  V30 38 2 35 33
M  V30 39 1 36 2
M  V30 40 1 37 2
M  V30 41 1 38 2
M  V30 42 1 39 3
M  V30 43 1 40 3
M  V30 44 1 41 4
M  V30 45 1 42 4
M  V30 46 1 43 6
M  V30 47 1 44 7
M  V30 48 1 45 8
M  V30 49 1 46 8
M  V30 50 1 47 9
M  V30 51 1 48 9
M  V30 52 1 49 11
M  V30 53 1 50 11
M  V30 54 1 51 11
M  V30 55 1 12 52 CFG=3
M  V30 56 1 53 14
M  V30 57 1 54 15
M  V30 58 1 55 15
M  V30 59 1 16 56 CFG=1
M  V30 60 1 57 18
M  V30 61 1 58 19
M  V30 62 1 59 22
M  V30 63 1 60 23
M  V30 64 1 61 24
M  V30 65 1 62 24
M  V30 66 1 63 25
M  V30 67 1 64 27
M  V30 68 1 65 27
M  V30 69 1 66 29
M  V30 70 1 67 29
M  V30 71 1 68 29
M  V30 72 1 69 30
M  V30 73 1 70 30
M  V30 74 1 71 30
M  V30 75 1 31 72 CFG=3
M  V30 76 1 73 34
M  V30 77 1 74 34
M  V30 78 1 75 35
M  V30 79 1 17 76 CFG=1
M  V30 END BOND
M  V30 END CTAB
M  END
>  <i_epik_Tot_Q>  (1) 
1

>  <i_epik_Tot_abs_Q>  (1) 
1

>  <i_i_glide_confnum>  (1) 
428

>  <i_i_glide_lignum>  (1) 
157

>  <i_i_glide_posenum>  (1) 
225

>  <i_i_glide_rotatable_bonds>  (1) 
12

>  <i_lp_mmshare_version>  (1) 
72125

>  <i_m_source_file_index>  (1) 
88

>  <i_f3d_flags>  (1) 
0

>  <num_sample>  (1) 
100

>  <b_lp_Chiralities_Consistent>  (1) 
1

>  <r_epik_Charging_Adjusted_Penalty>  (1) 
0.24591797925462006

>  <r_epik_Ionization_Penalty>  (1) 
0.12295908446121387

>  <r_epik_Ionization_Penalty_Charging>  (1) 
0.12295898962731001

>  <r_epik_Ionization_Penalty_Neutral>  (1) 
9.4833903855356945e-08

>  <r_epik_State_Penalty>  (1) 
0.12295898962731003

>  <r_glide_ring_energy>  (1) 
0

>  <r_i_docking_score>  (1) 
-6.4780078581327407

>  <r_i_glide_ecoul>  (1) 
-7.7675017537422697

>  <r_i_glide_eff_state_penalty>  (1) 
0.12295898962731003

>  <r_i_glide_einternal>  (1) 
11.001151536811507

>  <r_i_glide_emodel>  (1) 
-60.065751876508571

>  <r_i_glide_emodel_strain>  (1) 
0

>  <r_i_glide_energy>  (1) 
-49.223572545785132

>  <r_i_glide_erotb>  (1) 
0.74116783978336576

>  <r_i_glide_esite>  (1) 
-0.10000000000000001

>  <r_i_glide_evdw>  (1) 
-41.456070792042865

>  <r_i_glide_gscore>  (1) 
-6.6009668477600512

>  <r_i_glide_gscore_strain>  (1) 
0

>  <r_i_glide_hbond>  (1) 
-0.20000000000000001

>  <r_i_glide_ligand_efficiency>  (1) 
-0.18508593880379259

>  <r_i_glide_ligand_efficiency_ln>  (1) 
-1.4220664964983369

>  <r_i_glide_ligand_efficiency_sa>  (1) 
-0.60542837891071299

>  <r_i_glide_lipo>  (1) 
-2.5589026521052385

>  <r_i_glide_metal>  (1) 
-0

>  <r_i_glide_rewards>  (1) 
-1.2453032327746938

>  <r_lp_Energy>  (1) 
41.786876999999997

>  <r_lp_tautomer_probability>  (1) 
1

>  <s_epik_Chemistry_Notes>  (1) 
This compound contains an acetal/aminal-like group ( X-CH(R)-Y where X, Y are N, S, or O) that may be acid/base labile, releasing an aldehyde.

>  <s_epik_cmdline>  (1) 
J2VwaWtfcHl0aG9uJywgJy1waHQnLCAnMS4wJywgJy1waCcsICc3LjQnLCAnLXRuJywgJzgnLCAnLW1hJywgJzUwMCcsICctaW1hZScsICc8aW5maWxlLm1hZT4nLCAnLW9tYWUnLCAnPG91dGZpbGUubWFlPic=

>  <s_epik_input>  (1) 
W0NIMl0xT1tDQEhdMVtDSDJdU1tDQEhdKFtDSDJdW0NIMl1bQ0gzXSlPYyhbY0hdW2NIXTIpW2NIXVtjSF1jMi1jM1tjSF1bY0hdYyhbY0hdW2NIXTMpW0NASF0oW0NIM10pTihbQ0gyXVtDSDJdW0NIMl00KVtDSDJdW0NAQF00KFtDSDNdKVtOSF1DKD1PKVtDSDNd

>  <s_glide_docking_method>  (1) 
confgen

>  <s_i_glide_gridfile>  (1) 
gpcr_drd2_6luq_protein_autoprepared_prepared

>  <s_lp_Force_Field>  (1) 
S-OPLS

>  <s_lp_Variant>  (1) 
DiffSBDD_87-1

>  <s_m_source_file>  (1) 
generated_generic_title2_ligand_DiffSBDD_2026-06-23_prepared.sdf

>  <GenAI_Model>  (1) 
DiffSBDD

>  <Protein>  (1) 
generic_title2

$$$$
DiffSBDD_76
     RDKit          3D

  0  0  0  0  0  0  0  0  0  0999 V3000
M  V30 BEGIN CTAB
M  V30 COUNTS 54 57 0 0 1
M  V30 BEGIN ATOM
M  V30 1 N 7.580947 6.397989 -12.263253 0 CHG=1
M  V30 2 N 11.676500 7.679479 -4.680072 0
M  V30 3 C 7.478112 5.954229 -14.784707 0 CFG=1
M  V30 4 C 11.375376 7.050302 -5.961481 0
M  V30 5 F 10.429992 7.685578 -11.183942 0
M  V30 6 C 11.826082 8.948527 -4.365105 0
M  V30 7 C 6.575315 6.178719 -16.025747 0
M  V30 8 C 6.748775 5.931435 -13.400846 0
M  V30 9 C 8.745958 5.590205 -8.000628 0
M  V30 10 C 8.683181 5.527208 -11.812481 0
M  V30 11 C 4.908343 6.596370 -18.277204 0
M  V30 12 N 11.880798 6.932200 -3.580182 0
M  V30 13 C 6.058678 5.801600 -18.401368 0
M  V30 14 C 4.590187 7.190331 -17.046085 0
M  V30 15 C 8.130111 4.752676 -17.465487 0
M  V30 16 N 11.660180 9.915127 -5.344696 0
M  V30 17 C 9.047250 4.632075 -16.258481 0
M  V30 18 C 5.416666 6.989616 -15.925566 0
M  V30 19 C 9.600917 6.680948 -7.747460 0
M  V30 20 C 8.272223 4.644823 -14.954484 0
M  V30 21 O 8.422687 4.186956 -18.517819 0
M  V30 22 C 10.175575 7.386154 -8.825870 0
M  V30 23 N 12.135497 9.190251 -3.112100 0
M  V30 24 C 9.887360 7.106426 -6.316927 0
M  V30 25 C 8.459715 5.206432 -9.320789 0
M  V30 26 C 9.886883 7.003430 -10.149022 0
M  V30 27 C 9.023808 5.915233 -10.396733 0
M  V30 28 C 12.175484 7.879100 -2.662584 0
M  V30 29 C 6.902657 5.589489 -17.288951 0
M  V30 30 H 6.975373 6.514152 -11.457173 0
M  V30 31 H 8.175231 6.790199 -14.780324 0
M  V30 32 H 11.962878 7.550827 -6.730638 0
M  V30 33 H 11.719475 6.014938 -5.943096 0
M  V30 34 H 6.329764 4.946178 -13.191636 0
M  V30 35 H 5.904926 6.609052 -13.355091 0
M  V30 36 H 8.297294 5.059319 -7.185028 0
M  V30 37 H 9.563100 5.653502 -12.444211 0
M  V30 38 H 8.385316 4.477580 -11.841997 0
M  V30 39 H 4.269535 6.755505 -19.132579 0
M  V30 40 H 6.299803 5.355133 -19.355631 0
M  V30 41 H 3.707447 7.807988 -16.959275 0
M  V30 42 H 11.765360 10.897047 -5.137394 0
M  V30 43 H 11.422508 9.669710 -6.294041 0
M  V30 44 H 9.615940 3.706611 -16.347905 0
M  V30 45 H 9.767199 5.450413 -16.280425 0
M  V30 46 H 5.159077 7.462300 -14.995080 0
M  V30 47 H 8.984824 4.475192 -14.154700 0
M  V30 48 H 7.590642 3.791419 -14.931215 0
M  V30 49 H 10.827814 8.225588 -8.638618 0
M  V30 50 H 9.341790 6.465645 -5.624893 0
M  V30 51 H 9.495351 8.115211 -6.181883 0
M  V30 52 H 7.791416 4.381814 -9.507939 0
M  V30 53 H 12.414976 7.621150 -1.642161 0
M  V30 54 H 7.959269 7.311729 -12.469129 0
M  V30 END ATOM
M  V30 BEGIN BOND
M  V30 1 1 4 2
M  V30 2 1 6 2
M  V30 3 1 7 3
M  V30 4 1 8 1
M  V30 5 1 8 3
M  V30 6 1 10 1
M  V30 7 1 12 2
M  V30 8 1 13 11
M  V30 9 2 14 11
M  V30 10 1 16 6
M  V30 11 1 17 15
M  V30 12 2 18 7
M  V30 13 1 18 14
M  V30 14 1 19 9
M  V30 15 1 20 3
M  V30 16 1 20 17
M  V30 17 2 21 15
M  V30 18 2 22 19
M  V30 19 2 23 6
M  V30 20 1 24 4
M  V30 21 1 24 19
M  V30 22 2 25 9
M  V30 23 1 26 5
M  V30 24 1 26 22
M  V30 25 1 27 10
M  V30 26 1 27 25
M  V30 27 2 27 26
M  V30 28 2 28 12
M  V30 29 1 28 23
M  V30 30 1 29 7
M  V30 31 2 29 13
M  V30 32 1 29 15
M  V30 33 1 30 1
M  V30 34 1 3 31 CFG=1
M  V30 35 1 32 4
M  V30 36 1 33 4
M  V30 37 1 34 8
M  V30 38 1 35 8
M  V30 39 1 36 9
M  V30 40 1 37 10
M  V30 41 1 38 10
M  V30 42 1 39 11
M  V30 43 1 40 13
M  V30 44 1 41 14
M  V30 45 1 42 16
M  V30 46 1 43 16
M  V30 47 1 44 17
M  V30 48 1 45 17
M  V30 49 1 46 18
M  V30 50 1 47 20
M  V30 51 1 48 20
M  V30 52 1 49 22
M  V30 53 1 50 24
M  V30 54 1 51 24
M  V30 55 1 52 25
M  V30 56 1 53 28
M  V30 57 1 54 1
M  V30 END BOND
M  V30 END CTAB
M  END
>  <i_epik_Tot_Q>  (1) 
1

>  <i_epik_Tot_abs_Q>  (1) 
1

>  <i_i_glide_confnum>  (1) 
51

>  <i_i_glide_lignum>  (1) 
125

>  <i_i_glide_posenum>  (1) 
206

>  <i_i_glide_rotatable_bonds>  (1) 
7

>  <i_lp_mmshare_version>  (1) 
72125

>  <i_m_source_file_index>  (1) 
77

>  <i_f3d_flags>  (1) 
0

>  <num_sample>  (1) 
100

>  <b_lp_Chiralities_Consistent>  (1) 
1

>  <r_epik_Charging_Adjusted_Penalty>  (1) 
0.13114515656656739

>  <r_epik_Ionization_Penalty>  (1) 
0.066343571056588849

>  <r_epik_Ionization_Penalty_Charging>  (1) 
0.065572578283283764

>  <r_epik_Ionization_Penalty_Neutral>  (1) 
0.00077099277330508725

>  <r_epik_State_Penalty>  (1) 
0.065572578283283625

>  <r_glide_ring_energy>  (1) 
0

>  <r_i_docking_score>  (1) 
-6.4739059691354965

>  <r_i_glide_ecoul>  (1) 
-2.5617611546854993

>  <r_i_glide_eff_state_penalty>  (1) 
0.065572578283283625

>  <r_i_glide_einternal>  (1) 
6.2246553379953529

>  <r_i_glide_emodel>  (1) 
-62.907054999285677

>  <r_i_glide_emodel_strain>  (1) 
0.0056727963884242172

>  <r_i_glide_energy>  (1) 
-44.545914215389374

>  <r_i_glide_erotb>  (1) 
0.75361898126616078

>  <r_i_glide_esite>  (1) 
-0.085676297994729311

>  <r_i_glide_evdw>  (1) 
-41.984153060703875

>  <r_i_glide_gscore>  (1) 
-6.5394785474187804

>  <r_i_glide_gscore_strain>  (1) 
0

>  <r_i_glide_hbond>  (1) 
-0.0037954857810443606

>  <r_i_glide_ligand_efficiency>  (1) 
-0.22323813686674127

>  <r_i_glide_ligand_efficiency_ln>  (1) 
-1.4823603028411168

>  <r_i_glide_ligand_efficiency_sa>  (1) 
-0.68585828403044935

>  <r_i_glide_lipo>  (1) 
-2.0401064689760466

>  <r_i_glide_metal>  (1) 
-0

>  <r_i_glide_rewards>  (1) 
-2.680047449695103

>  <r_lp_Energy>  (1) 
27.011975

>  <r_lp_tautomer_probability>  (1) 
0.99994999147066566

>  <s_epik_cmdline>  (1) 
J2VwaWtfcHl0aG9uJywgJy1waHQnLCAnMS4wJywgJy1waCcsICc3LjQnLCAnLXRuJywgJzgnLCAnLW1hJywgJzUwMCcsICctaW1hZScsICc8aW5maWxlLm1hZT4nLCAnLW9tYWUnLCAnPG91dGZpbGUubWFlPic=

>  <s_epik_input>  (1) 
W2NIXTFbY0hdW2NIXVtjSF1jKGMxMilDKD1PKVtDSDJdW0NIMl1bQ0BIXTJbQ0gyXVtOSF1bQ0gyXWMoYyhGKVtjSF0zKVtjSF1bY0hdYzNbQ0gyXVtDSDJdbjRjKFtOSDJdKW5bY0hdbjQ=

>  <s_glide_docking_method>  (1) 
confgen

>  <s_i_glide_gridfile>  (1) 
gpcr_drd2_6luq_protein_autoprepared_prepared

>  <s_lp_Force_Field>  (1) 
S-OPLS

>  <s_lp_Variant>  (1) 
DiffSBDD_76-2

>  <s_m_source_file>  (1) 
generated_generic_title2_ligand_DiffSBDD_2026-06-23_prepared.sdf

>  <GenAI_Model>  (1) 
DiffSBDD

>  <Protein>  (1) 
generic_title2

$$$$
DiffSBDD_33
     RDKit          3D

  0  0  0  0  0  0  0  0  0  0999 V3000
M  V30 BEGIN CTAB
M  V30 COUNTS 48 50 0 0 1
M  V30 BEGIN ATOM
M  V30 1 C 6.536508 5.140388 -13.707252 0
M  V30 2 C 10.929056 7.259049 -8.481934 0
M  V30 3 C 6.619506 4.925750 -15.114397 0 CFG=1
M  V30 4 C 9.531309 8.262720 -6.683477 0
M  V30 5 N 7.543460 3.909548 -14.553432 0
M  V30 6 C 7.445461 4.152363 -13.072642 0 CFG=1
M  V30 7 C 11.973085 8.958722 -6.910001 0
M  V30 8 O 6.980750 2.390276 -16.163345 0 CHG=-1
M  V30 9 C 6.431670 5.590250 -16.473098 0 CFG=1
M  V30 10 C 9.850743 6.952002 -7.423453 0
M  V30 11 N 8.618869 6.390218 -8.009287 0 CHG=1
M  V30 12 S 9.054351 4.791675 -12.469687 0
M  V30 13 C 8.695289 5.051339 -8.625847 0
M  V30 14 C 5.424466 6.693392 -16.715946 0
M  V30 15 C 12.213563 7.721979 -7.789672 0
M  V30 16 C 10.780432 8.786728 -5.952411 0
M  V30 17 C 7.900054 5.024178 -9.938901 0
M  V30 18 O 7.526673 5.917434 -15.651131 0
M  V30 19 O 7.751081 1.657132 -14.243795 0
M  V30 20 F 13.059177 9.234674 -6.196210 0
M  V30 21 F 11.775410 9.990227 -7.715502 0
M  V30 22 C 8.558755 5.832751 -11.072830 0
M  V30 23 C 5.775410 6.039118 -13.061864 0
M  V30 24 C 7.423721 2.588992 -15.010809 0
M  V30 25 H 11.156642 6.390229 -9.090442 0
M  V30 26 H 10.580727 8.029650 -9.171342 0
M  V30 27 H 9.177086 9.014587 -7.390896 0
M  V30 28 H 8.711856 8.111186 -5.985024 0
M  V30 29 H 7.019173 3.337323 -12.486018 0
M  V30 30 H 6.680690 4.986372 -17.343882 0
M  V30 31 H 10.229801 6.219827 -6.706974 0
M  V30 32 H 8.265390 7.035271 -8.718633 0
M  V30 33 H 8.264692 4.336239 -7.927945 0
M  V30 34 H 9.721890 4.729857 -8.800402 0
M  V30 35 H 4.468975 6.264332 -17.020326 0
M  V30 36 H 5.270143 7.286984 -15.815725 0
M  V30 37 H 5.778631 7.353933 -17.507546 0
M  V30 38 H 12.575300 6.894057 -7.185023 0
M  V30 39 H 12.989326 7.935242 -8.526650 0
M  V30 40 H 11.048186 8.081890 -5.164154 0
M  V30 41 H 10.571971 9.735434 -5.456725 0
M  V30 42 H 6.889157 5.396188 -9.768508 0
M  V30 43 H 7.771384 3.990230 -10.251444 0
M  V30 44 H 9.455396 6.339352 -10.722932 0
M  V30 45 H 7.898759 6.624705 -11.421975 0
M  V30 46 H 5.135255 6.716192 -13.604122 0
M  V30 47 H 5.782924 6.105906 -11.984529 0
M  V30 48 H 7.878935 6.390023 -7.315155 0
M  V30 END ATOM
M  V30 BEGIN BOND
M  V30 1 1 3 1
M  V30 2 1 5 3
M  V30 3 1 6 1
M  V30 4 1 6 5
M  V30 5 1 9 3
M  V30 6 1 10 2
M  V30 7 1 10 4
M  V30 8 1 11 10
M  V30 9 1 12 6
M  V30 10 1 13 11
M  V30 11 1 14 9
M  V30 12 1 15 2
M  V30 13 1 15 7
M  V30 14 1 16 4
M  V30 15 1 16 7
M  V30 16 1 17 13
M  V30 17 1 3 18 CFG=3
M  V30 18 1 18 9
M  V30 19 1 20 7
M  V30 20 1 21 7
M  V30 21 1 22 12
M  V30 22 1 22 17
M  V30 23 2 23 1
M  V30 24 1 24 5
M  V30 25 1 24 8
M  V30 26 2 24 19
M  V30 27 1 25 2
M  V30 28 1 26 2
M  V30 29 1 27 4
M  V30 30 1 28 4
M  V30 31 1 6 29 CFG=1
M  V30 32 1 9 30 CFG=3
M  V30 33 1 31 10
M  V30 34 1 32 11
M  V30 35 1 33 13
M  V30 36 1 34 13
M  V30 37 1 35 14
M  V30 38 1 36 14
M  V30 39 1 37 14
M  V30 40 1 38 15
M  V30 41 1 39 15
M  V30 42 1 40 16
M  V30 43 1 41 16
M  V30 44 1 42 17
M  V30 45 1 43 17
M  V30 46 1 44 22
M  V30 47 1 45 22
M  V30 48 1 46 23
M  V30 49 1 47 23
M  V30 50 1 48 11
M  V30 END BOND
M  V30 END CTAB
M  END
>  <i_epik_Tot_Q>  (1) 
0

>  <i_epik_Tot_abs_Q>  (1) 
2

>  <i_i_glide_confnum>  (1) 
448

>  <i_i_glide_lignum>  (1) 
56

>  <i_i_glide_posenum>  (1) 
306

>  <i_i_glide_rotatable_bonds>  (1) 
7

>  <i_lp_mmshare_version>  (1) 
72125

>  <i_m_source_file_index>  (1) 
34

>  <i_f3d_flags>  (1) 
0

>  <num_sample>  (1) 
100

>  <b_lp_Chiralities_Consistent>  (1) 
1

>  <r_epik_Charging_Adjusted_Penalty>  (1) 
0.0028136040477262391

>  <r_epik_Ionization_Penalty>  (1) 
0.0028136042679479389

>  <r_epik_Ionization_Penalty_Charging>  (1) 
0.0028136040477262391

>  <r_epik_Ionization_Penalty_Neutral>  (1) 
2.2022169967552159e-10

>  <r_epik_State_Penalty>  (1) 
-0

>  <r_glide_ring_energy>  (1) 
0

>  <r_i_docking_score>  (1) 
-6.4715630501388191

>  <r_i_glide_ecoul>  (1) 
-5.1579328200518164

>  <r_i_glide_eff_state_penalty>  (1) 
-0

>  <r_i_glide_einternal>  (1) 
7.3369966532251887

>  <r_i_glide_emodel>  (1) 
-42.505463326125223

>  <r_i_glide_emodel_strain>  (1) 
0.33830377588768101

>  <r_i_glide_energy>  (1) 
-29.613092872586481

>  <r_i_glide_erotb>  (1) 
0.51160899165852303

>  <r_i_glide_esite>  (1) 
-0.084908672598273144

>  <r_i_glide_evdw>  (1) 
-24.455160052534666

>  <r_i_glide_gscore>  (1) 
-6.4715630501388191

>  <r_i_glide_gscore_strain>  (1) 
0

>  <r_i_glide_hbond>  (1) 
-0.30330911448446535

>  <r_i_glide_ligand_efficiency>  (1) 
-0.26964846042245078

>  <r_i_glide_ligand_efficiency_ln>  (1) 
-1.5489419985763735

>  <r_i_glide_ligand_efficiency_sa>  (1) 
-0.77780075235666779

>  <r_i_glide_lipo>  (1) 
-1.4519943689986383

>  <r_i_glide_metal>  (1) 
-0

>  <r_i_glide_rewards>  (1) 
-3.1465119600814591

>  <r_lp_Energy>  (1) 
17.488744999999998

>  <r_lp_tautomer_probability>  (1) 
1

>  <s_epik_Chemistry_Notes>  (1) 
This compound contains an acetal/aminal-like group ( X-CH(R)-Y where X, Y are N, S, or O) that may be acid/base labile, releasing an aldehyde.

>  <s_epik_cmdline>  (1) 
J2VwaWtfcHl0aG9uJywgJy1waHQnLCAnMS4wJywgJy1waCcsICc3LjQnLCAnLXRuJywgJzgnLCAnLW1hJywgJzUwMCcsICctaW1hZScsICc8aW5maWxlLm1hZT4nLCAnLW9tYWUnLCAnPG91dGZpbGUubWFlPic=

>  <s_epik_input>  (1) 
W0NIM11bQ0BASF0oTzEpQzEyQyg9W0NIMl0pW0NAQEhdKE4yQyg9TylbT0hdKVNbQ0gyXVtDSDJdW0NIMl1bTkhdW0NIXShbQ0gyXVtDSDJdMylbQ0gyXVtDSDJdQzMoRilG

>  <s_glide_docking_method>  (1) 
confgen

>  <s_i_glide_gridfile>  (1) 
gpcr_drd2_6luq_protein_autoprepared_prepared

>  <s_lp_Force_Field>  (1) 
S-OPLS

>  <s_lp_Variant>  (1) 
DiffSBDD_33-1

>  <s_m_source_file>  (1) 
generated_generic_title2_ligand_DiffSBDD_2026-06-23_prepared.sdf

>  <GenAI_Model>  (1) 
DiffSBDD

>  <Protein>  (1) 
generic_title2

$$$$
DiffSBDD_22
     RDKit          3D

  0  0  0  0  0  0  0  0  0  0999 V3000
M  V30 BEGIN CTAB
M  V30 COUNTS 29 30 0 0 1
M  V30 BEGIN ATOM
M  V30 1 C 9.645092 7.013253 -7.902004 0 CFG=1
M  V30 2 N 8.575409 6.001716 -7.737662 0 CHG=1
M  V30 3 C 7.911344 4.918301 -9.900379 0
M  V30 4 C 12.360696 9.024844 -3.256013 0
M  V30 5 C 10.664907 7.308300 -6.829037 0 CFG=2
M  V30 6 C 11.775457 8.612404 -4.424338 0
M  V30 7 C 8.672200 4.790247 -8.570621 0
M  V30 8 C 10.792648 6.481328 -5.561898 0
M  V30 9 C 11.436934 7.211354 -4.417143 0
M  V30 10 O 9.775195 7.365910 -9.263728 0
M  V30 11 C 9.455876 8.213918 -7.021612 0
M  V30 12 S 12.501429 7.735040 -2.131268 0
M  V30 13 C 11.775410 6.614723 -3.226214 0
M  V30 14 H 8.591916 5.717764 -6.770468 0
M  V30 15 H 7.958913 3.990346 -10.468363 0
M  V30 16 H 6.859214 5.149254 -9.736065 0
M  V30 17 H 8.321684 5.698453 -10.539393 0
M  V30 18 H 12.715302 10.001421 -2.995115 0
M  V30 19 H 11.617743 7.682399 -7.200507 0
M  V30 20 H 11.584771 9.251397 -5.273983 0
M  V30 21 H 9.716704 4.519751 -8.732735 0
M  V30 22 H 8.220943 3.990316 -7.985175 0
M  V30 23 H 9.807374 6.131680 -5.255317 0
M  V30 24 H 11.375387 5.591197 -5.802969 0
M  V30 25 H 8.902727 7.590377 -9.585017 0
M  V30 26 H 9.631912 9.190211 -7.459339 0
M  V30 27 H 8.665011 8.181480 -6.274420 0
M  V30 28 H 11.638122 5.590225 -2.932869 0
M  V30 29 H 7.673601 6.458500 -7.892805 0
M  V30 END ATOM
M  V30 BEGIN BOND
M  V30 1 1 2 1
M  V30 2 1 5 1
M  V30 3 2 6 4
M  V30 4 1 7 2
M  V30 5 1 7 3
M  V30 6 1 8 5
M  V30 7 1 9 6
M  V30 8 1 9 8
M  V30 9 1 1 10 CFG=3
M  V30 10 1 11 1
M  V30 11 1 11 5
M  V30 12 1 12 4
M  V30 13 2 13 9
M  V30 14 1 13 12
M  V30 15 1 14 2
M  V30 16 1 15 3
M  V30 17 1 16 3
M  V30 18 1 17 3
M  V30 19 1 18 4
M  V30 20 1 5 19 CFG=3
M  V30 21 1 20 6
M  V30 22 1 21 7
M  V30 23 1 22 7
M  V30 24 1 23 8
M  V30 25 1 24 8
M  V30 26 1 25 10
M  V30 27 1 26 11
M  V30 28 1 27 11
M  V30 29 1 28 13
M  V30 30 1 29 2
M  V30 END BOND
M  V30 END CTAB
M  END
>  <i_epik_Tot_Q>  (1) 
1

>  <i_epik_Tot_abs_Q>  (1) 
1

>  <i_i_glide_confnum>  (1) 
12

>  <i_i_glide_lignum>  (1) 
40

>  <i_i_glide_posenum>  (1) 
196

>  <i_i_glide_rotatable_bonds>  (1) 
5

>  <i_lp_mmshare_version>  (1) 
72125

>  <i_m_source_file_index>  (1) 
23

>  <i_f3d_flags>  (1) 
0

>  <num_sample>  (1) 
100

>  <b_lp_Chiralities_Consistent>  (1) 
1

>  <r_epik_Charging_Adjusted_Penalty>  (1) 
1.3614070434525585

>  <r_epik_Ionization_Penalty>  (1) 
0.68090079983986818

>  <r_epik_Ionization_Penalty_Charging>  (1) 
0.68070352172627924

>  <r_epik_Ionization_Penalty_Neutral>  (1) 
0.00019727811358890825

>  <r_epik_State_Penalty>  (1) 
0.68070352172627924

>  <r_glide_ring_energy>  (1) 
0

>  <r_i_docking_score>  (1) 
-6.4710191791593648

>  <r_i_glide_ecoul>  (1) 
-9.4917422252004826

>  <r_i_glide_eff_state_penalty>  (1) 
0.68070352172627924

>  <r_i_glide_einternal>  (1) 
4.6083342163802588

>  <r_i_glide_emodel>  (1) 
-50.384158471209481

>  <r_i_glide_emodel_strain>  (1) 
1.0393361845557365

>  <r_i_glide_energy>  (1) 
-33.043661540728245

>  <r_i_glide_erotb>  (1) 
0.8697133986629777

>  <r_i_glide_esite>  (1) 
-0.16782242526309177

>  <r_i_glide_evdw>  (1) 
-23.551919315527762

>  <r_i_glide_gscore>  (1) 
-7.1517227008856441

>  <r_i_glide_gscore_strain>  (1) 
0

>  <r_i_glide_hbond>  (1) 
-0.46126617388663693

>  <r_i_glide_ligand_efficiency>  (1) 
-0.49777070608918189

>  <r_i_glide_ligand_efficiency_ln>  (1) 
-1.81517843040753

>  <r_i_glide_ligand_efficiency_sa>  (1) 
-1.1704255277587476

>  <r_i_glide_lipo>  (1) 
-1.8168230386555992

>  <r_i_glide_metal>  (1) 
-0

>  <r_i_glide_rewards>  (1) 
-2.9741671621868342

>  <r_lp_Energy>  (1) 
5.1831209999999999

>  <s_epik_cmdline>  (1) 
J2VwaWtfcHl0aG9uJywgJy1waHQnLCAnMS4wJywgJy1waCcsICc3LjQnLCAnLXRuJywgJzgnLCAnLW1hJywgJzUwMCcsICctaW1hZScsICc8aW5maWxlLm1hZT4nLCAnLW9tYWUnLCAnPG91dGZpbGUubWFlPic=

>  <s_epik_input>  (1) 
W0NIM11bQ0gyXVtOSF1bQ0BdMShbT0hdKVtDQEBIXShbQ0gyXTEpW0NIMl1jMltjSF1bY0hdc1tjSF0y

>  <s_glide_docking_method>  (1) 
confgen

>  <s_i_glide_gridfile>  (1) 
gpcr_drd2_6luq_protein_autoprepared_prepared

>  <s_lp_Force_Field>  (1) 
S-OPLS

>  <s_lp_Variant>  (1) 
DiffSBDD_22-2

>  <s_m_source_file>  (1) 
generated_generic_title2_ligand_DiffSBDD_2026-06-23_prepared.sdf

>  <GenAI_Model>  (1) 
DiffSBDD

>  <Protein>  (1) 
generic_title2

$$$$
DiffSBDD_55
     RDKit          3D

  0  0  0  0  0  0  0  0  0  0999 V3000
M  V30 BEGIN CTAB
M  V30 COUNTS 28 29 0 0 1
M  V30 BEGIN ATOM
M  V30 1 C 12.134528 7.003516 -2.981475 0
M  V30 2 C 11.375410 7.698122 -5.212224 0
M  V30 3 C 11.806856 9.365478 -3.465589 0
M  V30 4 C 10.444871 8.390227 -7.391933 0 CFG=2
M  V30 5 O 8.175405 5.590227 -9.530164 0
M  V30 6 S 10.343211 7.570738 -8.993100 0
M  V30 7 N 8.660583 5.572815 -8.168406 0
M  V30 8 N 11.023815 7.362775 -6.554049 0
M  V30 9 C 11.731257 6.675622 -4.290920 0
M  V30 10 C 10.662704 5.990227 -6.821554 0
M  V30 11 C 9.032712 8.720454 -6.953168 0
M  V30 12 C 12.175409 8.344870 -2.571375 0
M  V30 13 F 12.560211 8.655501 -1.312141 0
M  V30 14 C 11.418249 9.052382 -4.785022 0
M  V30 15 C 10.070052 5.940119 -8.232499 0 CFG=2
M  V30 16 H 12.413065 6.220522 -2.291663 0
M  V30 17 H 11.823188 10.390145 -3.139033 0
M  V30 18 H 11.085614 9.264268 -7.487904 0
M  V30 19 H 7.796014 6.479243 -9.585025 0
M  V30 20 H 8.100919 6.312519 -7.748574 0
M  V30 21 H 11.714283 5.640115 -4.592846 0
M  V30 22 H 9.952900 5.629457 -6.078961 0
M  V30 23 H 11.558762 5.370479 -6.785019 0
M  V30 24 H 9.039446 9.190106 -5.985026 0
M  V30 25 H 8.555954 9.390672 -7.663855 0
M  V30 26 H 8.409097 7.838569 -6.841427 0
M  V30 27 H 11.157320 9.849641 -5.461687 0
M  V30 28 H 10.575408 5.172474 -8.808310 0
M  V30 END ATOM
M  V30 BEGIN BOND
M  V30 1 1 6 4
M  V30 2 1 7 5
M  V30 3 1 8 2
M  V30 4 1 8 4
M  V30 5 2 9 1
M  V30 6 1 9 2
M  V30 7 1 10 8
M  V30 8 1 11 4
M  V30 9 1 12 1
M  V30 10 2 12 3
M  V30 11 1 13 12
M  V30 12 2 14 2
M  V30 13 1 14 3
M  V30 14 1 15 6
M  V30 15 1 15 7
M  V30 16 1 15 10
M  V30 17 1 16 1
M  V30 18 1 17 3
M  V30 19 1 4 18 CFG=3
M  V30 20 1 19 5
M  V30 21 1 20 7
M  V30 22 1 21 9
M  V30 23 1 22 10
M  V30 24 1 23 10
M  V30 25 1 24 11
M  V30 26 1 25 11
M  V30 27 1 26 11
M  V30 28 1 27 14
M  V30 29 1 15 28 CFG=3
M  V30 END BOND
M  V30 END CTAB
M  END
>  <i_epik_Tot_Q>  (1) 
0

>  <i_epik_Tot_abs_Q>  (1) 
0

>  <i_i_glide_confnum>  (1) 
19

>  <i_i_glide_lignum>  (1) 
88

>  <i_i_glide_posenum>  (1) 
35

>  <i_i_glide_rotatable_bonds>  (1) 
3

>  <i_lp_mmshare_version>  (1) 
72125

>  <i_m_source_file_index>  (1) 
56

>  <i_f3d_flags>  (1) 
0

>  <num_sample>  (1) 
100

>  <b_lp_Chiralities_Consistent>  (1) 
1

>  <r_epik_Charging_Adjusted_Penalty>  (1) 
0

>  <r_epik_Ionization_Penalty>  (1) 
0.00013553305087233701

>  <r_epik_Ionization_Penalty_Charging>  (1) 
0

>  <r_epik_Ionization_Penalty_Neutral>  (1) 
0.00013553305087233701

>  <r_epik_State_Penalty>  (1) 
-0

>  <r_glide_ring_energy>  (1) 
1.903466321057584

>  <r_i_docking_score>  (1) 
-6.4620132531354058

>  <r_i_glide_ecoul>  (1) 
-6.6444109815761534

>  <r_i_glide_eff_state_penalty>  (1) 
-0

>  <r_i_glide_einternal>  (1) 
0.43350707083537721

>  <r_i_glide_emodel>  (1) 
-31.248957946604403

>  <r_i_glide_emodel_strain>  (1) 
1.1435673319606998

>  <r_i_glide_energy>  (1) 
-24.445314568570588

>  <r_i_glide_erotb>  (1) 
0.65380846344162624

>  <r_i_glide_esite>  (1) 
-0.19059801964772349

>  <r_i_glide_evdw>  (1) 
-17.800903586994433

>  <r_i_glide_gscore>  (1) 
-6.4620132531354058

>  <r_i_glide_gscore_strain>  (1) 
0

>  <r_i_glide_hbond>  (1) 
-0.14933531008215262

>  <r_i_glide_ligand_efficiency>  (1) 
-0.4308008835423604

>  <r_i_glide_ligand_efficiency_ln>  (1) 
-1.7426984271180002

>  <r_i_glide_ligand_efficiency_sa>  (1) 
-1.062446340624404

>  <r_i_glide_lipo>  (1) 
-1.9757141324059946

>  <r_i_glide_metal>  (1) 
-0

>  <r_i_glide_rewards>  (1) 
-2.913467427855017

>  <r_lp_Energy>  (1) 
2.3965259999999997

>  <r_lp_tautomer_probability>  (1) 
1

>  <s_epik_Chemistry_Notes>  (1) 
This compound contains an acetal/aminal-like group ( X-CH(R)-Y where X, Y are N, S, or O) that may be acid/base labile, releasing an aldehyde. This compound has a N-S or N-O group and may undergo hydrolysis at high or low pH.

>  <s_epik_cmdline>  (1) 
J2VwaWtfcHl0aG9uJywgJy1waHQnLCAnMS4wJywgJy1waCcsICc3LjQnLCAnLXRuJywgJzgnLCAnLW1hJywgJzUwMCcsICctaW1hZScsICc8aW5maWxlLm1hZT4nLCAnLW9tYWUnLCAnPG91dGZpbGUubWFlPic=

>  <s_epik_input>  (1) 
W2NIXTFbY0hdYyhGKVtjSF1bY0hdYzFOMltDSDJdW0NAQEhdKFtOSF1bT0hdKVNbQ0BIXTJbQ0gzXQ==

>  <s_glide_docking_method>  (1) 
confgen

>  <s_i_glide_gridfile>  (1) 
gpcr_drd2_6luq_protein_autoprepared_prepared

>  <s_lp_Force_Field>  (1) 
S-OPLS

>  <s_lp_Variant>  (1) 
DiffSBDD_55-1

>  <s_m_source_file>  (1) 
generated_generic_title2_ligand_DiffSBDD_2026-06-23_prepared.sdf

>  <GenAI_Model>  (1) 
DiffSBDD

>  <Protein>  (1) 
generic_title2

$$$$
DiffSBDD_83
     RDKit          3D

  0  0  0  0  0  0  0  0  0  0999 V3000
M  V30 BEGIN CTAB
M  V30 COUNTS 46 48 0 0 1
M  V30 BEGIN ATOM
M  V30 1 C 6.707062 4.386503 -12.357260 0
M  V30 2 C 12.502546 8.049641 -2.292115 0
M  V30 3 C 11.746850 9.076881 -4.368244 0
M  V30 4 C 10.150965 6.533128 -6.490316 0
M  V30 5 F 12.348016 5.683679 -2.024244 0
M  V30 6 C 12.301774 9.190515 -3.081325 0
M  V30 7 C 11.582255 6.660239 -4.068708 0
M  V30 8 C 7.797849 6.375758 -11.931778 0 CFG=1
M  V30 9 C 12.147474 6.784171 -2.784429 0
M  V30 10 N 7.250492 4.748434 -13.436864 0 CHG=1
M  V30 11 N 9.375341 7.268940 -10.190494 0 CFG=2 CHG=1
M  V30 12 C 6.776069 5.354634 -11.256339 0 CFG=2
M  V30 13 C 11.376820 7.814282 -4.867975 0
M  V30 14 C 7.183905 4.713043 -9.931727 0
M  V30 15 C 10.058664 7.605564 -11.433982 0
M  V30 16 O 10.837839 7.719428 -6.130663 0
M  V30 17 C 9.353727 6.842174 -7.751574 0
M  V30 18 F 13.037418 8.170596 -1.055459 0
M  V30 19 C 7.107703 7.035927 -14.356736 0
M  V30 20 C 10.187468 6.812663 -9.039089 0
M  V30 21 C 9.205578 6.372112 -11.324566 0 CFG=2
M  V30 22 C 7.881680 6.038817 -13.477820 0 CFG=1
M  V30 23 H 6.227116 3.416046 -12.289693 0
M  V30 24 H 11.597639 9.961057 -4.970425 0
M  V30 25 H 9.453705 6.248428 -5.700760 0
M  V30 26 H 10.842293 5.705397 -6.657695 0
M  V30 27 H 12.574250 10.157359 -2.698069 0
M  V30 28 H 11.313269 5.683576 -4.438084 0
M  V30 29 H 7.394429 7.381536 -11.805811 0
M  V30 30 H 6.553550 3.861307 -9.673577 0
M  V30 31 H 8.221442 4.389325 -9.908824 0
M  V30 32 H 7.048290 5.452948 -9.149663 0
M  V30 33 H 11.139656 7.541732 -11.325262 0
M  V30 34 H 9.638671 8.519722 -11.846111 0
M  V30 35 H 8.864666 7.809800 -7.625844 0
M  V30 36 H 8.556403 6.108938 -7.819765 0
M  V30 37 H 7.593085 8.011623 -14.363215 0
M  V30 38 H 7.042278 6.693243 -15.389110 0
M  V30 39 H 6.090741 7.186543 -13.990265 0
M  V30 40 H 10.574724 5.806350 -9.184848 0
M  V30 41 H 11.046501 7.475423 -8.927797 0
M  V30 42 H 9.723757 5.420084 -11.234242 0
M  V30 43 H 8.906674 5.890036 -13.822847 0
M  V30 44 H 8.427325 7.622231 -9.984978 0
M  V30 45 H 5.789938 5.809763 -11.145300 0
M  V30 46 H 7.258906 4.150496 -14.259429 0
M  V30 END ATOM
M  V30 BEGIN BOND
M  V30 1 1 6 2
M  V30 2 2 6 3
M  V30 3 2 9 2
M  V30 4 1 9 5
M  V30 5 1 9 7
M  V30 6 2 10 1
M  V30 7 1 12 1
M  V30 8 1 12 8
M  V30 9 1 13 3
M  V30 10 2 13 7
M  V30 11 1 14 12
M  V30 12 1 15 11
M  V30 13 1 16 4
M  V30 14 1 16 13
M  V30 15 1 17 4
M  V30 16 1 18 2
M  V30 17 1 20 11
M  V30 18 1 20 17
M  V30 19 1 21 8
M  V30 20 1 21 11
M  V30 21 1 21 15
M  V30 22 1 22 8
M  V30 23 1 22 10
M  V30 24 1 22 19
M  V30 25 1 23 1
M  V30 26 1 24 3
M  V30 27 1 25 4
M  V30 28 1 26 4
M  V30 29 1 27 6
M  V30 30 1 28 7
M  V30 31 1 8 29 CFG=3
M  V30 32 1 30 14
M  V30 33 1 31 14
M  V30 34 1 32 14
M  V30 35 1 33 15
M  V30 36 1 34 15
M  V30 37 1 35 17
M  V30 38 1 36 17
M  V30 39 1 37 19
M  V30 40 1 38 19
M  V30 41 1 39 19
M  V30 42 1 40 20
M  V30 43 1 41 20
M  V30 44 1 21 42 CFG=1
M  V30 45 1 22 43 CFG=3
M  V30 46 1 11 44 CFG=1
M  V30 47 1 12 45 CFG=1
M  V30 48 1 46 10
M  V30 END BOND
M  V30 END CTAB
M  END
>  <i_epik_Tot_Q>  (1) 
2

>  <i_epik_Tot_abs_Q>  (1) 
2

>  <i_i_glide_confnum>  (1) 
174

>  <i_i_glide_lignum>  (1) 
150

>  <i_i_glide_posenum>  (1) 
379

>  <i_i_glide_rotatable_bonds>  (1) 
6

>  <i_lp_mmshare_version>  (1) 
72125

>  <i_m_source_file_index>  (1) 
84

>  <i_f3d_flags>  (1) 
0

>  <num_sample>  (1) 
100

>  <b_lp_Chiralities_Consistent>  (1) 
1

>  <r_epik_Charging_Adjusted_Penalty>  (1) 
1.5610925274032894

>  <r_epik_Ionization_Penalty>  (1) 
5.6947270193771686

>  <r_epik_Ionization_Penalty_Charging>  (1) 
0.86989266313289404

>  <r_epik_Ionization_Penalty_Neutral>  (1) 
4.824834356244275

>  <r_epik_State_Penalty>  (1) 
0.69119986427039537

>  <r_glide_ring_energy>  (1) 
0

>  <r_i_docking_score>  (1) 
-6.4551158248379448

>  <r_i_glide_ecoul>  (1) 
-10.553370403862353

>  <r_i_glide_eff_state_penalty>  (1) 
0.69119986427039537

>  <r_i_glide_einternal>  (1) 
6.8345722091099113

>  <r_i_glide_emodel>  (1) 
-61.094715233392925

>  <r_i_glide_emodel_strain>  (1) 
1.8974656255623046

>  <r_i_glide_energy>  (1) 
-40.462969661061976

>  <r_i_glide_erotb>  (1) 
0.96167990521069524

>  <r_i_glide_esite>  (1) 
-0.10041181586882755

>  <r_i_glide_evdw>  (1) 
-29.909599257199623

>  <r_i_glide_gscore>  (1) 
-7.1463156891083406

>  <r_i_glide_gscore_strain>  (1) 
0

>  <r_i_glide_hbond>  (1) 
-0.20000000000000001

>  <r_i_glide_ligand_efficiency>  (1) 
-0.29341435567445201

>  <r_i_glide_ligand_efficiency_ln>  (1) 
-1.5778657636610378

>  <r_i_glide_ligand_efficiency_sa>  (1) 
-0.8221585647787234

>  <r_i_glide_lipo>  (1) 
-2.22548107607129

>  <r_i_glide_metal>  (1) 
-0

>  <r_i_glide_rewards>  (1) 
-2.5036171789395825

>  <r_lp_Energy>  (1) 
38.261415

>  <r_lp_tautomer_probability>  (1) 
1

>  <s_epik_Chemistry_Notes>  (1) 
This compound has an imine and may undergo hydrolysis.

>  <s_epik_cmdline>  (1) 
J2VwaWtfcHl0aG9uJywgJy1waHQnLCAnMS4wJywgJy1waCcsICc3LjQnLCAnLXRuJywgJzgnLCAnLW1hJywgJzUwMCcsICctaW1hZScsICc8aW5maWxlLm1hZT4nLCAnLW9tYWUnLCAnPG91dGZpbGUubWFlPic=

>  <s_epik_input>  (1) 
W0NIM11bQ0BASF0xTj1bQ0hdW0NAQEhdKFtDSDNdKVtDQEhdMVtDQEhdMltDSDJdTjJbQ0gyXVtDSDJdW0NIMl1PYyhbY0hdYzNGKVtjSF1bY0hdYzNG

>  <s_glide_docking_method>  (1) 
confgen

>  <s_i_glide_gridfile>  (1) 
gpcr_drd2_6luq_protein_autoprepared_prepared

>  <s_lp_Force_Field>  (1) 
S-OPLS

>  <s_lp_Variant>  (1) 
DiffSBDD_83-4

>  <s_m_source_file>  (1) 
generated_generic_title2_ligand_DiffSBDD_2026-06-23_prepared.sdf

>  <GenAI_Model>  (1) 
DiffSBDD

>  <Protein>  (1) 
generic_title2

$$$$
DiffSBDD_72
     RDKit          3D

  0  0  0  0  0  0  0  0  0  0999 V3000
M  V30 BEGIN CTAB
M  V30 COUNTS 47 49 0 0 1
M  V30 BEGIN ATOM
M  V30 1 C 12.175754 7.458164 -3.170193 0
M  V30 2 C 12.173732 8.347288 -7.561460 0
M  V30 3 C 10.571380 6.445122 -6.961540 0
M  V30 4 C 11.399928 8.151793 -5.222531 0
M  V30 5 C 12.545171 6.507090 -2.079512 0
M  V30 6 C 11.545397 9.372517 -4.593490 0
M  V30 7 C 7.073188 5.760720 -13.876817 0
M  V30 8 C 6.421032 5.475787 -12.531132 0
M  V30 9 C 10.986812 7.911651 -6.666414 0 CFG=1
M  V30 10 N 11.775474 7.079501 -4.384741 0
M  V30 11 C 9.775260 5.612782 -11.501977 0
M  V30 12 C 9.931262 7.131307 -9.467260 0 CFG=2
M  V30 13 C 9.849090 6.119597 -8.298931 0
M  V30 14 C 8.770427 4.982659 -12.495446 0 CFG=1
M  V30 15 C 7.427253 4.540716 -11.888741 0
M  V30 16 S 12.175379 9.189121 -2.970622 0
M  V30 17 O 8.453591 5.875192 -13.562786 0
M  V30 18 O 8.849019 7.774242 -11.425390 0
M  V30 19 N 9.182458 6.619546 -10.621137 0
M  V30 20 C 11.345301 7.605291 -9.857689 0
M  V30 21 C 11.831396 8.765811 -8.993448 0
M  V30 22 H 12.940362 7.575869 -7.585135 0
M  V30 23 H 12.660873 9.209003 -7.106206 0
M  V30 24 H 11.455005 5.810585 -6.881768 0
M  V30 25 H 9.911469 6.107248 -6.160204 0
M  V30 26 H 11.653961 5.989695 -1.725411 0
M  V30 27 H 13.278536 5.769034 -2.395698 0
M  V30 28 H 12.975003 7.055295 -1.241663 0
M  V30 29 H 11.355816 10.357182 -4.994543 0
M  V30 30 H 6.693217 6.669904 -14.344570 0
M  V30 31 H 6.920661 4.927104 -14.565179 0
M  V30 32 H 6.341779 6.396439 -11.949785 0
M  V30 33 H 5.424731 5.039556 -12.619368 0
M  V30 34 H 10.130464 8.555901 -6.873360 0
M  V30 35 H 10.633083 6.020741 -12.039407 0
M  V30 36 H 10.146593 4.802612 -10.879845 0
M  V30 37 H 9.375665 8.006521 -9.127839 0
M  V30 38 H 8.788281 5.991320 -8.073898 0
M  V30 39 H 10.178347 5.135576 -8.632897 0
M  V30 40 H 9.246783 4.109777 -12.941322 0
M  V30 41 H 7.207071 3.519140 -12.193388 0
M  V30 42 H 7.397976 4.579851 -10.798043 0
M  V30 43 H 8.002502 7.989791 -11.037520 0
M  V30 44 H 12.060289 6.790390 -9.814650 0
M  V30 45 H 11.352270 7.957732 -10.887391 0
M  V30 46 H 12.732950 9.175916 -9.450345 0
M  V30 47 H 11.107851 9.580342 -9.002784 0
M  V30 END ATOM
M  V30 BEGIN BOND
M  V30 1 1 5 1
M  V30 2 2 6 4
M  V30 3 1 8 7
M  V30 4 1 9 2
M  V30 5 1 9 3
M  V30 6 1 9 4
M  V30 7 2 10 1
M  V30 8 1 10 4
M  V30 9 1 13 3
M  V30 10 1 13 12
M  V30 11 1 14 11
M  V30 12 1 15 8
M  V30 13 1 15 14
M  V30 14 1 16 1
M  V30 15 1 16 6
M  V30 16 1 17 7
M  V30 17 1 17 14
M  V30 18 1 19 11
M  V30 19 1 19 12
M  V30 20 1 19 18
M  V30 21 1 20 12
M  V30 22 1 21 2
M  V30 23 1 21 20
M  V30 24 1 22 2
M  V30 25 1 23 2
M  V30 26 1 24 3
M  V30 27 1 25 3
M  V30 28 1 26 5
M  V30 29 1 27 5
M  V30 30 1 28 5
M  V30 31 1 29 6
M  V30 32 1 30 7
M  V30 33 1 31 7
M  V30 34 1 32 8
M  V30 35 1 33 8
M  V30 36 1 9 34 CFG=3
M  V30 37 1 35 11
M  V30 38 1 36 11
M  V30 39 1 12 37 CFG=1
M  V30 40 1 38 13
M  V30 41 1 39 13
M  V30 42 1 14 40 CFG=3
M  V30 43 1 41 15
M  V30 44 1 42 15
M  V30 45 1 43 18
M  V30 46 1 44 20
M  V30 47 1 45 20
M  V30 48 1 46 21
M  V30 49 1 47 21
M  V30 END BOND
M  V30 END CTAB
M  END
>  <i_epik_Tot_Q>  (1) 
0

>  <i_epik_Tot_abs_Q>  (1) 
0

>  <i_i_glide_confnum>  (1) 
86

>  <i_i_glide_lignum>  (1) 
117

>  <i_i_glide_posenum>  (1) 
56

>  <i_i_glide_rotatable_bonds>  (1) 
5

>  <i_lp_mmshare_version>  (1) 
72125

>  <i_m_source_file_index>  (1) 
73

>  <i_f3d_flags>  (1) 
0

>  <num_sample>  (1) 
100

>  <b_lp_Chiralities_Consistent>  (1) 
1

>  <r_epik_Charging_Adjusted_Penalty>  (1) 
0.31702420014140181

>  <r_epik_Ionization_Penalty>  (1) 
0.0051686073058934195

>  <r_epik_Ionization_Penalty_Charging>  (1) 
0

>  <r_epik_Ionization_Penalty_Neutral>  (1) 
0.0051686073058934195

>  <r_epik_State_Penalty>  (1) 
0.31702420014140181

>  <r_glide_ring_energy>  (1) 
0.11961513275216866

>  <r_i_docking_score>  (1) 
-6.4453111571637338

>  <r_i_glide_ecoul>  (1) 
-2.9929255849802714

>  <r_i_glide_eff_state_penalty>  (1) 
0.31702420014140181

>  <r_i_glide_einternal>  (1) 
9.9666666918547229

>  <r_i_glide_emodel>  (1) 
-45.111026758204595

>  <r_i_glide_emodel_strain>  (1) 
3.3002828798251826

>  <r_i_glide_energy>  (1) 
-36.500936805890944

>  <r_i_glide_erotb>  (1) 
0.76903323708162985

>  <r_i_glide_esite>  (1) 
-0.19651171299689665

>  <r_i_glide_evdw>  (1) 
-33.508011220910674

>  <r_i_glide_gscore>  (1) 
-6.7623353573051359

>  <r_i_glide_gscore_strain>  (1) 
0

>  <r_i_glide_hbond>  (1) 
-0.14432827908468915

>  <r_i_glide_ligand_efficiency>  (1) 
-0.30691957891255878

>  <r_i_glide_ligand_efficiency_ln>  (1) 
-1.5935901596312234

>  <r_i_glide_ligand_efficiency_sa>  (1) 
-0.84676784646657166

>  <r_i_glide_lipo>  (1) 
-2.9038061772811883

>  <r_i_glide_metal>  (1) 
-0

>  <r_i_glide_rewards>  (1) 
-2.1623830262314172

>  <r_lp_Energy>  (1) 
12.292861

>  <s_epik_Chemistry_Notes>  (1) 
This compound has a N-S or N-O group and may undergo hydrolysis at high or low pH.

>  <s_epik_cmdline>  (1) 
J2VwaWtfcHl0aG9uJywgJy1waHQnLCAnMS4wJywgJy1waCcsICc3LjQnLCAnLXRuJywgJzgnLCAnLW1hJywgJzUwMCcsICctaW1hZScsICc8aW5maWxlLm1hZT4nLCAnLW9tYWUnLCAnPG91dGZpbGUubWFlPic=

>  <s_epik_input>  (1) 
W0NIM11jMW5jKFtjSF1zMSlbQ0BIXTJbQ0gyXVtDSDJdW0NIMl1bQ0BIXShbQ0gyXVtDSDJdMilOKFtPSF0pW0NIMl1bQ0BIXTNbQ0gyXVtDSDJdW0NIMl1PMw==

>  <s_glide_docking_method>  (1) 
confgen

>  <s_i_glide_gridfile>  (1) 
gpcr_drd2_6luq_protein_autoprepared_prepared

>  <s_lp_Force_Field>  (1) 
S-OPLS

>  <s_lp_Variant>  (1) 
DiffSBDD_72-1

>  <s_m_source_file>  (1) 
generated_generic_title2_ligand_DiffSBDD_2026-06-23_prepared.sdf

>  <GenAI_Model>  (1) 
DiffSBDD

>  <Protein>  (1) 
generic_title2

$$$$
DiffSBDD_76
     RDKit          3D

  0  0  0  0  0  0  0  0  0  0999 V3000
M  V30 BEGIN CTAB
M  V30 COUNTS 54 57 0 0 1
M  V30 BEGIN ATOM
M  V30 1 N 6.920385 6.087993 -11.585025 0 CHG=1
M  V30 2 N 11.351751 7.783592 -4.785035 0
M  V30 3 C 5.913274 4.487690 -13.296811 0 CFG=2
M  V30 4 C 10.518308 7.236201 -5.843784 0
M  V30 5 F 10.175410 8.020575 -11.611374 0
M  V30 6 C 11.798549 9.005862 -4.598882 0
M  V30 7 C 6.824741 4.271301 -14.519151 0
M  V30 8 C 5.912527 5.901903 -12.643087 0
M  V30 9 C 9.676070 5.455926 -8.385028 0
M  V30 10 C 8.336740 5.912971 -11.938170 0
M  V30 11 C 8.466121 3.890230 -16.792297 0
M  V30 12 N 11.775413 7.006378 -3.774577 0
M  V30 13 C 8.175410 2.802574 -15.952203 0
M  V30 14 C 7.941325 5.161122 -16.508935 0
M  V30 15 C 7.063933 1.791558 -13.945947 0
M  V30 16 N 11.478125 9.990236 -5.518218 0
M  V30 17 C 6.061882 2.005562 -12.818529 0
M  V30 18 C 7.123309 5.355797 -15.380680 0
M  V30 19 C 10.575409 6.537228 -8.288823 0
M  V30 20 C 6.113015 3.406646 -12.226235 0
M  V30 21 O 7.571535 0.683855 -14.112922 0
M  V30 22 C 10.742977 7.408188 -9.382843 0
M  V30 23 N 12.529831 9.187192 -3.524533 0
M  V30 24 C 11.373334 6.755763 -7.018370 0
M  V30 25 C 8.955179 5.242825 -9.573560 0
M  V30 26 C 10.017332 7.193712 -10.567428 0
M  V30 27 C 9.126814 6.117477 -10.666310 0
M  V30 28 C 12.482862 7.889998 -3.035708 0
M  V30 29 C 7.358630 2.978006 -14.814560 0
M  V30 30 H 6.721450 5.411989 -10.862470 0
M  V30 31 H 4.909232 4.351561 -13.698729 0
M  V30 32 H 9.908210 6.422934 -5.447153 0
M  V30 33 H 9.820521 8.008743 -6.169485 0
M  V30 34 H 4.975411 6.016941 -12.106244 0
M  V30 35 H 5.926431 6.731938 -13.344676 0
M  V30 36 H 9.541550 4.790227 -7.552087 0
M  V30 37 H 8.605654 6.639435 -12.705494 0
M  V30 38 H 8.563045 4.929871 -12.346966 0
M  V30 39 H 9.092013 3.747544 -17.660991 0
M  V30 40 H 8.580652 1.826453 -16.180937 0
M  V30 41 H 8.164151 5.990227 -17.162315 0
M  V30 42 H 11.796276 10.941195 -5.403454 0
M  V30 43 H 10.908123 9.791679 -6.326981 0
M  V30 44 H 5.071579 1.801815 -13.224078 0
M  V30 45 H 6.236693 1.260716 -12.041434 0
M  V30 46 H 6.722741 6.335160 -15.184034 0
M  V30 47 H 7.076931 3.513697 -11.738859 0
M  V30 48 H 5.375412 3.533591 -11.433685 0
M  V30 49 H 11.430795 8.238478 -9.314967 0
M  V30 50 H 12.163088 7.479655 -7.224220 0
M  V30 51 H 11.877872 5.826496 -6.749894 0
M  V30 52 H 8.267137 4.413914 -9.644756 0
M  V30 53 H 12.975389 7.594340 -2.121110 0
M  V30 54 H 6.817202 6.992588 -11.124843 0
M  V30 END ATOM
M  V30 BEGIN BOND
M  V30 1 1 4 2
M  V30 2 1 6 2
M  V30 3 1 7 3
M  V30 4 1 8 1
M  V30 5 1 8 3
M  V30 6 1 10 1
M  V30 7 1 12 2
M  V30 8 1 13 11
M  V30 9 2 14 11
M  V30 10 1 16 6
M  V30 11 1 17 15
M  V30 12 2 18 7
M  V30 13 1 18 14
M  V30 14 1 19 9
M  V30 15 1 20 3
M  V30 16 1 20 17
M  V30 17 2 21 15
M  V30 18 2 22 19
M  V30 19 2 23 6
M  V30 20 1 24 4
M  V30 21 1 24 19
M  V30 22 2 25 9
M  V30 23 1 26 5
M  V30 24 1 26 22
M  V30 25 1 27 10
M  V30 26 1 27 25
M  V30 27 2 27 26
M  V30 28 2 28 12
M  V30 29 1 28 23
M  V30 30 1 29 7
M  V30 31 2 29 13
M  V30 32 1 29 15
M  V30 33 1 30 1
M  V30 34 1 3 31 CFG=3
M  V30 35 1 32 4
M  V30 36 1 33 4
M  V30 37 1 34 8
M  V30 38 1 35 8
M  V30 39 1 36 9
M  V30 40 1 37 10
M  V30 41 1 38 10
M  V30 42 1 39 11
M  V30 43 1 40 13
M  V30 44 1 41 14
M  V30 45 1 42 16
M  V30 46 1 43 16
M  V30 47 1 44 17
M  V30 48 1 45 17
M  V30 49 1 46 18
M  V30 50 1 47 20
M  V30 51 1 48 20
M  V30 52 1 49 22
M  V30 53 1 50 24
M  V30 54 1 51 24
M  V30 55 1 52 25
M  V30 56 1 53 28
M  V30 57 1 54 1
M  V30 END BOND
M  V30 END CTAB
M  END
>  <i_epik_Tot_Q>  (1) 
1

>  <i_epik_Tot_abs_Q>  (1) 
1

>  <i_i_glide_confnum>  (1) 
179

>  <i_i_glide_lignum>  (1) 
124

>  <i_i_glide_posenum>  (1) 
399

>  <i_i_glide_rotatable_bonds>  (1) 
7

>  <i_lp_mmshare_version>  (1) 
72125

>  <i_m_source_file_index>  (1) 
77

>  <i_f3d_flags>  (1) 
0

>  <num_sample>  (1) 
100

>  <b_lp_Chiralities_Consistent>  (1) 
1

>  <r_epik_Charging_Adjusted_Penalty>  (1) 
0.13114515656656739

>  <r_epik_Ionization_Penalty>  (1) 
0.066343571056588849

>  <r_epik_Ionization_Penalty_Charging>  (1) 
0.065572578283283764

>  <r_epik_Ionization_Penalty_Neutral>  (1) 
0.00077099277330508725

>  <r_epik_State_Penalty>  (1) 
0.065572578283283625

>  <r_glide_ring_energy>  (1) 
0

>  <r_i_docking_score>  (1) 
-6.4392067436702725

>  <r_i_glide_ecoul>  (1) 
-3.4639389455645428

>  <r_i_glide_eff_state_penalty>  (1) 
0.065572578283283625

>  <r_i_glide_einternal>  (1) 
8.8704457897915461

>  <r_i_glide_emodel>  (1) 
-60.200536418550485

>  <r_i_glide_emodel_strain>  (1) 
0.29130627322957992

>  <r_i_glide_energy>  (1) 
-44.72379147839311

>  <r_i_glide_erotb>  (1) 
0.75361898126616078

>  <r_i_glide_esite>  (1) 
-0.11867737201017821

>  <r_i_glide_evdw>  (1) 
-41.259852532828567

>  <r_i_glide_gscore>  (1) 
-6.5047793219535563

>  <r_i_glide_gscore_strain>  (1) 
0

>  <r_i_glide_hbond>  (1) 
-0.17347878098160016

>  <r_i_glide_ligand_efficiency>  (1) 
-0.22204161185069904

>  <r_i_glide_ligand_efficiency_ln>  (1) 
-1.4744150601060186

>  <r_i_glide_ligand_efficiency_sa>  (1) 
-0.68218218009130882

>  <r_i_glide_lipo>  (1) 
-1.5308357034618003

>  <r_i_glide_metal>  (1) 
-0

>  <r_i_glide_rewards>  (1) 
-2.8528229782900292

>  <r_lp_Energy>  (1) 
27.364193

>  <r_lp_tautomer_probability>  (1) 
0.99994999147066566

>  <s_epik_cmdline>  (1) 
J2VwaWtfcHl0aG9uJywgJy1waHQnLCAnMS4wJywgJy1waCcsICc3LjQnLCAnLXRuJywgJzgnLCAnLW1hJywgJzUwMCcsICctaW1hZScsICc8aW5maWxlLm1hZT4nLCAnLW9tYWUnLCAnPG91dGZpbGUubWFlPic=

>  <s_epik_input>  (1) 
W2NIXTFbY0hdW2NIXVtjSF1jKGMxMilDKD1PKVtDSDJdW0NIMl1bQ0BIXTJbQ0gyXVtOSF1bQ0gyXWMoYyhGKVtjSF0zKVtjSF1bY0hdYzNbQ0gyXVtDSDJdbjRjKFtOSDJdKW5bY0hdbjQ=

>  <s_glide_docking_method>  (1) 
confgen

>  <s_i_glide_gridfile>  (1) 
gpcr_drd2_6luq_protein_autoprepared_prepared

>  <s_lp_Force_Field>  (1) 
S-OPLS

>  <s_lp_Variant>  (1) 
DiffSBDD_76-1

>  <s_m_source_file>  (1) 
generated_generic_title2_ligand_DiffSBDD_2026-06-23_prepared.sdf

>  <GenAI_Model>  (1) 
DiffSBDD

>  <Protein>  (1) 
generic_title2

$$$$
DiffSBDD_33
     RDKit          3D

  0  0  0  0  0  0  0  0  0  0999 V3000
M  V30 BEGIN CTAB
M  V30 COUNTS 48 50 0 0 1
M  V30 BEGIN ATOM
M  V30 1 C 8.175410 3.438321 -13.786215 0
M  V30 2 C 10.477204 8.235089 -8.385994 0
M  V30 3 C 7.519892 2.477899 -14.600639 0 CFG=1
M  V30 4 C 9.747571 6.624176 -6.591885 0
M  V30 5 N 7.233196 3.760745 -15.285179 0
M  V30 6 C 7.862437 4.766227 -14.365315 0 CFG=1
M  V30 7 C 11.221840 8.567671 -5.972907 0
M  V30 8 O 7.547853 2.801222 -17.334100 0 CHG=-1
M  V30 9 C 6.913048 1.090182 -14.615515 0 CFG=1
M  V30 10 C 10.112033 6.764413 -8.075436 0
M  V30 11 N 8.975406 6.257564 -8.876298 0 CHG=1
M  V30 12 S 6.536903 5.702585 -13.518715 0
M  V30 13 C 9.032321 6.452059 -10.335018 0
M  V30 14 C 7.455662 -0.009727 -13.744776 0
M  V30 15 C 11.586201 8.757293 -7.453945 0
M  V30 16 C 10.877479 7.102580 -5.671981 0
M  V30 17 C 7.771732 5.904554 -11.024395 0
M  V30 18 O 6.266484 2.150917 -13.951625 0
M  V30 19 O 7.831290 4.968956 -17.129258 0
M  V30 20 F 12.237261 8.956547 -5.205471 0
M  V30 21 F 10.175959 9.333727 -5.676674 0
M  V30 22 C 7.533982 6.644734 -12.348064 0
M  V30 23 C 8.975362 3.202987 -12.732981 0
M  V30 24 C 7.547147 3.848666 -16.650056 0
M  V30 25 H 10.822292 8.344138 -9.413998 0
M  V30 26 H 9.587213 8.857801 -8.284803 0
M  V30 27 H 8.839384 7.193039 -6.384932 0
M  V30 28 H 9.508426 5.590230 -6.376362 0
M  V30 29 H 8.668214 5.371681 -14.784416 0
M  V30 30 H 6.449895 0.775073 -15.548420 0
M  V30 31 H 10.975026 6.132960 -8.291516 0
M  V30 32 H 8.130778 6.766255 -8.606549 0
M  V30 33 H 9.929481 5.997040 -10.753672 0
M  V30 34 H 9.087773 7.522227 -10.534109 0
M  V30 35 H 8.346662 -0.422739 -14.214532 0
M  V30 36 H 7.725799 0.374449 -12.761682 0
M  V30 37 H 6.710282 -0.796123 -13.622216 0
M  V30 38 H 12.517444 8.231995 -7.670839 0
M  V30 39 H 11.775400 9.810365 -7.656325 0
M  V30 40 H 11.757255 6.473322 -5.815025 0
M  V30 41 H 10.583275 6.984898 -4.629288 0
M  V30 42 H 6.883053 5.990203 -10.398747 0
M  V30 43 H 7.849697 4.832784 -11.151740 0
M  V30 44 H 8.477477 6.893531 -12.835622 0
M  V30 45 H 7.030366 7.590510 -12.143661 0
M  V30 46 H 9.167027 2.196104 -12.394910 0
M  V30 47 H 9.456496 4.010379 -12.207102 0
M  V30 48 H 8.828863 5.279564 -8.676876 0
M  V30 END ATOM
M  V30 BEGIN BOND
M  V30 1 1 3 1
M  V30 2 1 5 3
M  V30 3 1 6 1
M  V30 4 1 6 5
M  V30 5 1 9 3
M  V30 6 1 10 2
M  V30 7 1 10 4
M  V30 8 1 11 10
M  V30 9 1 12 6
M  V30 10 1 13 11
M  V30 11 1 14 9
M  V30 12 1 15 2
M  V30 13 1 15 7
M  V30 14 1 16 4
M  V30 15 1 16 7
M  V30 16 1 17 13
M  V30 17 1 3 18 CFG=3
M  V30 18 1 18 9
M  V30 19 1 20 7
M  V30 20 1 21 7
M  V30 21 1 22 12
M  V30 22 1 22 17
M  V30 23 2 23 1
M  V30 24 1 24 5
M  V30 25 1 24 8
M  V30 26 2 24 19
M  V30 27 1 25 2
M  V30 28 1 26 2
M  V30 29 1 27 4
M  V30 30 1 28 4
M  V30 31 1 6 29 CFG=3
M  V30 32 1 9 30 CFG=3
M  V30 33 1 31 10
M  V30 34 1 32 11
M  V30 35 1 33 13
M  V30 36 1 34 13
M  V30 37 1 35 14
M  V30 38 1 36 14
M  V30 39 1 37 14
M  V30 40 1 38 15
M  V30 41 1 39 15
M  V30 42 1 40 16
M  V30 43 1 41 16
M  V30 44 1 42 17
M  V30 45 1 43 17
M  V30 46 1 44 22
M  V30 47 1 45 22
M  V30 48 1 46 23
M  V30 49 1 47 23
M  V30 50 1 48 11
M  V30 END BOND
M  V30 END CTAB
M  END
>  <i_epik_Tot_Q>  (1) 
0

>  <i_epik_Tot_abs_Q>  (1) 
2

>  <i_i_glide_confnum>  (1) 
446

>  <i_i_glide_lignum>  (1) 
56

>  <i_i_glide_posenum>  (1) 
226

>  <i_i_glide_rotatable_bonds>  (1) 
7

>  <i_lp_mmshare_version>  (1) 
72125

>  <i_m_source_file_index>  (1) 
34

>  <i_f3d_flags>  (1) 
0

>  <num_sample>  (1) 
100

>  <b_lp_Chiralities_Consistent>  (1) 
1

>  <r_epik_Charging_Adjusted_Penalty>  (1) 
0.0028136040477262391

>  <r_epik_Ionization_Penalty>  (1) 
0.0028136042679479389

>  <r_epik_Ionization_Penalty_Charging>  (1) 
0.0028136040477262391

>  <r_epik_Ionization_Penalty_Neutral>  (1) 
2.2022169967552159e-10

>  <r_epik_State_Penalty>  (1) 
-0

>  <r_glide_ring_energy>  (1) 
0

>  <r_i_docking_score>  (1) 
-6.438730843525863

>  <r_i_glide_ecoul>  (1) 
-6.1537262905153884

>  <r_i_glide_eff_state_penalty>  (1) 
-0

>  <r_i_glide_einternal>  (1) 
4.555520200606022

>  <r_i_glide_emodel>  (1) 
-42.79661736363424

>  <r_i_glide_emodel_strain>  (1) 
1.055846393282792

>  <r_i_glide_energy>  (1) 
-29.316785940656722

>  <r_i_glide_erotb>  (1) 
0.51160899165852303

>  <r_i_glide_esite>  (1) 
-0.096182886250405483

>  <r_i_glide_evdw>  (1) 
-23.163059650141335

>  <r_i_glide_gscore>  (1) 
-6.438730843525863

>  <r_i_glide_gscore_strain>  (1) 
0

>  <r_i_glide_hbond>  (1) 
-0.21720412259832123

>  <r_i_glide_ligand_efficiency>  (1) 
-0.26828045181357763

>  <r_i_glide_ligand_efficiency_ln>  (1) 
-1.5410837449621011

>  <r_i_glide_ligand_efficiency_sa>  (1) 
-0.77385473270001948

>  <r_i_glide_lipo>  (1) 
-1.473748275172132

>  <r_i_glide_metal>  (1) 
-0

>  <r_i_glide_rewards>  (1) 
-3.0819926250791516

>  <r_lp_Energy>  (1) 
17.488744999999998

>  <r_lp_tautomer_probability>  (1) 
1

>  <s_epik_Chemistry_Notes>  (1) 
This compound contains an acetal/aminal-like group ( X-CH(R)-Y where X, Y are N, S, or O) that may be acid/base labile, releasing an aldehyde.

>  <s_epik_cmdline>  (1) 
J2VwaWtfcHl0aG9uJywgJy1waHQnLCAnMS4wJywgJy1waCcsICc3LjQnLCAnLXRuJywgJzgnLCAnLW1hJywgJzUwMCcsICctaW1hZScsICc8aW5maWxlLm1hZT4nLCAnLW9tYWUnLCAnPG91dGZpbGUubWFlPic=

>  <s_epik_input>  (1) 
W0NIM11bQ0BASF0oTzEpQzEyQyg9W0NIMl0pW0NAQEhdKE4yQyg9TylbT0hdKVNbQ0gyXVtDSDJdW0NIMl1bTkhdW0NIXShbQ0gyXVtDSDJdMylbQ0gyXVtDSDJdQzMoRilG

>  <s_glide_docking_method>  (1) 
confgen

>  <s_i_glide_gridfile>  (1) 
gpcr_drd2_6luq_protein_autoprepared_prepared

>  <s_lp_Force_Field>  (1) 
S-OPLS

>  <s_lp_Variant>  (1) 
DiffSBDD_33-1

>  <s_m_source_file>  (1) 
generated_generic_title2_ligand_DiffSBDD_2026-06-23_prepared.sdf

>  <GenAI_Model>  (1) 
DiffSBDD

>  <Protein>  (1) 
generic_title2

$$$$
DiffSBDD_83
     RDKit          3D

  0  0  0  0  0  0  0  0  0  0999 V3000
M  V30 BEGIN CTAB
M  V30 COUNTS 45 47 0 0 1
M  V30 BEGIN ATOM
M  V30 1 C 11.140434 8.184208 -6.603546 0
M  V30 2 C 5.775218 6.779975 -17.164234 0
M  V30 3 C 6.296796 6.610675 -14.786317 0
M  V30 4 C 7.969375 5.565913 -12.744143 0
M  V30 5 F 6.926405 5.377088 -18.723023 0
M  V30 6 C 5.562993 7.196075 -15.837217 0
M  V30 7 C 7.462500 5.190125 -16.398730 0
M  V30 8 C 11.009393 7.516624 -8.809053 0 CFG=1
M  V30 9 C 6.723405 5.777163 -17.445337 0
M  V30 10 N 11.775407 9.117789 -7.152238 0
M  V30 11 N 8.975414 7.040725 -10.385060 0 CFG=1 CHG=1
M  V30 12 C 10.706818 6.993932 -7.385829 0 CFG=2
M  V30 13 C 7.257324 5.602387 -15.066467 0
M  V30 14 C 9.268039 6.572138 -7.055362 0
M  V30 15 C 9.806329 7.990232 -11.114647 0
M  V30 16 O 7.997840 5.015478 -14.055575 0
M  V30 17 C 9.194506 5.073687 -11.949533 0
M  V30 18 F 5.067121 7.344212 -18.171373 0
M  V30 19 C 13.425991 8.390263 -8.784897 0
M  V30 20 C 9.246513 5.585952 -10.491706 0
M  V30 21 C 9.790146 7.977974 -9.606387 0 CFG=2
M  V30 22 C 11.951014 8.733765 -8.541864 0 CFG=1
M  V30 23 H 10.873292 8.190713 -5.543353 0
M  V30 24 H 6.121522 6.935502 -13.772913 0
M  V30 25 H 7.043052 5.283832 -12.241518 0
M  V30 26 H 8.013154 6.653204 -12.801091 0
M  V30 27 H 4.835003 7.965290 -15.623770 0
M  V30 28 H 8.190082 4.422711 -16.618471 0
M  V30 29 H 11.562024 6.790233 -9.395314 0
M  V30 30 H 9.185053 6.253675 -6.015653 0
M  V30 31 H 8.575412 7.400289 -7.190179 0
M  V30 32 H 8.934571 5.739118 -7.671397 0
M  V30 33 H 9.162428 8.666370 -11.673764 0
M  V30 34 H 10.616362 7.499469 -11.649727 0
M  V30 35 H 10.102054 5.369432 -12.477281 0
M  V30 36 H 9.204798 3.982676 -11.939817 0
M  V30 37 H 13.628538 8.186001 -9.835955 0
M  V30 38 H 14.084023 9.190226 -8.458137 0
M  V30 39 H 13.727222 7.536108 -8.198837 0
M  V30 40 H 10.174945 5.294348 -10.014830 0
M  V30 41 H 8.464277 5.084544 -9.920928 0
M  V30 42 H 9.156554 8.720827 -9.123656 0
M  V30 43 H 11.688693 9.575945 -9.185388 0
M  V30 44 H 7.999248 7.312557 -10.175674 0
M  V30 45 H 11.385013 6.173117 -7.148829 0
M  V30 END ATOM
M  V30 BEGIN BOND
M  V30 1 1 6 2
M  V30 2 2 6 3
M  V30 3 2 9 2
M  V30 4 1 9 5
M  V30 5 1 9 7
M  V30 6 2 10 1
M  V30 7 1 12 1
M  V30 8 1 12 8
M  V30 9 1 13 3
M  V30 10 2 13 7
M  V30 11 1 14 12
M  V30 12 1 15 11
M  V30 13 1 16 4
M  V30 14 1 16 13
M  V30 15 1 17 4
M  V30 16 1 18 2
M  V30 17 1 20 11
M  V30 18 1 20 17
M  V30 19 1 21 8
M  V30 20 1 21 11
M  V30 21 1 21 15
M  V30 22 1 22 8
M  V30 23 1 22 10
M  V30 24 1 22 19
M  V30 25 1 23 1
M  V30 26 1 24 3
M  V30 27 1 25 4
M  V30 28 1 26 4
M  V30 29 1 27 6
M  V30 30 1 28 7
M  V30 31 1 8 29 CFG=3
M  V30 32 1 30 14
M  V30 33 1 31 14
M  V30 34 1 32 14
M  V30 35 1 33 15
M  V30 36 1 34 15
M  V30 37 1 35 17
M  V30 38 1 36 17
M  V30 39 1 37 19
M  V30 40 1 38 19
M  V30 41 1 39 19
M  V30 42 1 40 20
M  V30 43 1 41 20
M  V30 44 1 21 42 CFG=1
M  V30 45 1 22 43 CFG=3
M  V30 46 1 11 44 CFG=3
M  V30 47 1 12 45 CFG=1
M  V30 END BOND
M  V30 END CTAB
M  END
>  <i_epik_Tot_Q>  (1) 
1

>  <i_epik_Tot_abs_Q>  (1) 
1

>  <i_i_glide_confnum>  (1) 
16

>  <i_i_glide_lignum>  (1) 
147

>  <i_i_glide_posenum>  (1) 
142

>  <i_i_glide_rotatable_bonds>  (1) 
6

>  <i_lp_mmshare_version>  (1) 
72125

>  <i_m_source_file_index>  (1) 
84

>  <i_f3d_flags>  (1) 
0

>  <num_sample>  (1) 
100

>  <b_lp_Chiralities_Consistent>  (1) 
1

>  <r_epik_Charging_Adjusted_Penalty>  (1) 
0.43105765877043739

>  <r_epik_Ionization_Penalty>  (1) 
0.36079924242796862

>  <r_epik_Ionization_Penalty_Charging>  (1) 
0.10499320228047652

>  <r_epik_Ionization_Penalty_Neutral>  (1) 
0.25580604014749209

>  <r_epik_State_Penalty>  (1) 
0.32606445648996085

>  <r_glide_ring_energy>  (1) 
0

>  <r_i_docking_score>  (1) 
-6.4374114777086682

>  <r_i_glide_ecoul>  (1) 
-9.4876997728300996

>  <r_i_glide_eff_state_penalty>  (1) 
0.32606445648996085

>  <r_i_glide_einternal>  (1) 
11.155092993176492

>  <r_i_glide_emodel>  (1) 
-49.132329701097596

>  <r_i_glide_emodel_strain>  (1) 
1.3176373118130016

>  <r_i_glide_energy>  (1) 
-36.053877572305673

>  <r_i_glide_erotb>  (1) 
0.96718860002963114

>  <r_i_glide_esite>  (1) 
-0.10000000000000001

>  <r_i_glide_evdw>  (1) 
-26.566177799475572

>  <r_i_glide_gscore>  (1) 
-6.7634759341986292

>  <r_i_glide_gscore_strain>  (1) 
0

>  <r_i_glide_hbond>  (1) 
-0.14365231063661271

>  <r_i_glide_ligand_efficiency>  (1) 
-0.2926096126231213

>  <r_i_glide_ligand_efficiency_ln>  (1) 
-1.5735381754408904

>  <r_i_glide_ligand_efficiency_sa>  (1) 
-0.81990364309782293

>  <r_i_glide_lipo>  (1) 
-1.8791642533438297

>  <r_i_glide_metal>  (1) 
-0

>  <r_i_glide_rewards>  (1) 
-2.8563841143495248

>  <r_lp_Energy>  (1) 
26.820309999999999

>  <r_lp_tautomer_probability>  (1) 
0.99998600000000004

>  <s_epik_Chemistry_Notes>  (1) 
This compound has an imine and may undergo hydrolysis.

>  <s_epik_cmdline>  (1) 
J2VwaWtfcHl0aG9uJywgJy1waHQnLCAnMS4wJywgJy1waCcsICc3LjQnLCAnLXRuJywgJzgnLCAnLW1hJywgJzUwMCcsICctaW1hZScsICc8aW5maWxlLm1hZT4nLCAnLW9tYWUnLCAnPG91dGZpbGUubWFlPic=

>  <s_epik_input>  (1) 
W0NIM11bQ0BASF0xTj1bQ0hdW0NAQEhdKFtDSDNdKVtDQEhdMVtDQEhdMltDSDJdTjJbQ0gyXVtDSDJdW0NIMl1PYyhbY0hdYzNGKVtjSF1bY0hdYzNG

>  <s_glide_docking_method>  (1) 
confgen

>  <s_i_glide_gridfile>  (1) 
gpcr_drd2_6luq_protein_autoprepared_prepared

>  <s_lp_Force_Field>  (1) 
S-OPLS

>  <s_lp_Variant>  (1) 
DiffSBDD_83-1

>  <s_m_source_file>  (1) 
generated_generic_title2_ligand_DiffSBDD_2026-06-23_prepared.sdf

>  <GenAI_Model>  (1) 
DiffSBDD

>  <Protein>  (1) 
generic_title2

$$$$
DiffSBDD_83
     RDKit          3D

  0  0  0  0  0  0  0  0  0  0999 V3000
M  V30 BEGIN CTAB
M  V30 COUNTS 46 48 0 0 1
M  V30 BEGIN ATOM
M  V30 1 C 7.474480 3.730032 -13.534773 0
M  V30 2 C 12.177236 7.665702 -3.124774 0
M  V30 3 C 11.023135 6.967780 -5.157045 0
M  V30 4 C 10.228516 7.672894 -7.790480 0
M  V30 5 F 12.637115 9.980541 -2.784327 0
M  V30 6 C 11.628111 6.647921 -3.925650 0
M  V30 7 C 11.527376 9.328421 -4.784817 0
M  V30 8 C 7.660444 5.782479 -12.462267 0 CFG=1
M  V30 9 C 12.123929 9.004319 -3.554961 0
M  V30 10 N 7.082405 4.609111 -14.350339 0 CHG=1
M  V30 11 N 8.975471 7.303086 -10.921821 0 CFG=2 CHG=1
M  V30 12 C 7.922654 4.225274 -12.223990 0 CFG=2
M  V30 13 C 10.976008 8.318200 -5.592195 0
M  V30 14 C 9.371851 3.780164 -11.978615 0
M  V30 15 C 8.717612 8.167853 -12.064686 0
M  V30 16 O 10.394204 8.662182 -6.790690 0
M  V30 17 C 10.345766 8.377831 -9.142470 0
M  V30 18 F 12.751049 7.358047 -1.938354 0
M  V30 19 C 5.714900 6.618895 -14.002792 0
M  V30 20 C 10.314794 7.384774 -10.309522 0
M  V30 21 C 8.872519 6.681496 -12.235240 0 CFG=2
M  V30 22 C 7.102929 5.980493 -13.931625 0 CFG=1
M  V30 23 H 7.467409 2.682545 -13.820665 0
M  V30 24 H 10.598051 6.181173 -5.759296 0
M  V30 25 H 9.257806 7.187087 -7.679413 0
M  V30 26 H 11.007341 6.910815 -7.743793 0
M  V30 27 H 11.666617 5.620694 -3.593216 0
M  V30 28 H 11.490454 10.356713 -5.109888 0
M  V30 29 H 6.883303 6.087715 -11.758010 0
M  V30 30 H 9.445347 2.693071 -11.981428 0
M  V30 31 H 10.051920 4.142282 -12.749595 0
M  V30 32 H 9.730121 4.135142 -11.012059 0
M  V30 33 H 9.556937 8.809387 -12.304381 0
M  V30 34 H 7.732173 8.620212 -11.965367 0
M  V30 35 H 11.294865 8.916157 -9.163532 0
M  V30 36 H 9.572477 9.140380 -9.248112 0
M  V30 37 H 5.697705 7.590290 -13.512496 0
M  V30 38 H 5.399892 6.760468 -15.036837 0
M  V30 39 H 4.975525 5.989851 -13.508618 0
M  V30 40 H 10.575532 6.389338 -9.958586 0
M  V30 41 H 11.069395 7.656466 -11.048378 0
M  V30 42 H 9.827467 6.361282 -12.646756 0
M  V30 43 H 7.816486 6.497067 -14.575424 0
M  V30 44 H 8.150574 7.291606 -10.305547 0
M  V30 45 H 7.256259 3.837538 -11.453342 0
M  V30 46 H 6.756654 4.366708 -15.283344 0
M  V30 END ATOM
M  V30 BEGIN BOND
M  V30 1 1 6 2
M  V30 2 2 6 3
M  V30 3 2 9 2
M  V30 4 1 9 5
M  V30 5 1 9 7
M  V30 6 2 10 1
M  V30 7 1 12 1
M  V30 8 1 12 8
M  V30 9 1 13 3
M  V30 10 2 13 7
M  V30 11 1 14 12
M  V30 12 1 15 11
M  V30 13 1 16 4
M  V30 14 1 16 13
M  V30 15 1 17 4
M  V30 16 1 18 2
M  V30 17 1 20 11
M  V30 18 1 20 17
M  V30 19 1 21 8
M  V30 20 1 21 11
M  V30 21 1 21 15
M  V30 22 1 22 8
M  V30 23 1 22 10
M  V30 24 1 22 19
M  V30 25 1 23 1
M  V30 26 1 24 3
M  V30 27 1 25 4
M  V30 28 1 26 4
M  V30 29 1 27 6
M  V30 30 1 28 7
M  V30 31 1 8 29 CFG=1
M  V30 32 1 30 14
M  V30 33 1 31 14
M  V30 34 1 32 14
M  V30 35 1 33 15
M  V30 36 1 34 15
M  V30 37 1 35 17
M  V30 38 1 36 17
M  V30 39 1 37 19
M  V30 40 1 38 19
M  V30 41 1 39 19
M  V30 42 1 40 20
M  V30 43 1 41 20
M  V30 44 1 21 42 CFG=3
M  V30 45 1 22 43 CFG=3
M  V30 46 1 11 44 CFG=1
M  V30 47 1 12 45 CFG=1
M  V30 48 1 46 10
M  V30 END BOND
M  V30 END CTAB
M  END
>  <i_epik_Tot_Q>  (1) 
2

>  <i_epik_Tot_abs_Q>  (1) 
2

>  <i_i_glide_confnum>  (1) 
204

>  <i_i_glide_lignum>  (1) 
150

>  <i_i_glide_posenum>  (1) 
391

>  <i_i_glide_rotatable_bonds>  (1) 
6

>  <i_lp_mmshare_version>  (1) 
72125

>  <i_m_source_file_index>  (1) 
84

>  <i_f3d_flags>  (1) 
0

>  <num_sample>  (1) 
100

>  <b_lp_Chiralities_Consistent>  (1) 
1

>  <r_epik_Charging_Adjusted_Penalty>  (1) 
1.5610925274032894

>  <r_epik_Ionization_Penalty>  (1) 
5.6947270193771686

>  <r_epik_Ionization_Penalty_Charging>  (1) 
0.86989266313289404

>  <r_epik_Ionization_Penalty_Neutral>  (1) 
4.824834356244275

>  <r_epik_State_Penalty>  (1) 
0.69119986427039537

>  <r_glide_ring_energy>  (1) 
0

>  <r_i_docking_score>  (1) 
-6.436305078832639

>  <r_i_glide_ecoul>  (1) 
-8.7061863173188154

>  <r_i_glide_eff_state_penalty>  (1) 
0.69119986427039537

>  <r_i_glide_einternal>  (1) 
5.0719607017963586

>  <r_i_glide_emodel>  (1) 
-61.452954291129579

>  <r_i_glide_emodel_strain>  (1) 
0.38994639273325049

>  <r_i_glide_energy>  (1) 
-38.500680878942859

>  <r_i_glide_erotb>  (1) 
0.96167990521069524

>  <r_i_glide_esite>  (1) 
-0.10000000000000001

>  <r_i_glide_evdw>  (1) 
-29.794494561624045

>  <r_i_glide_gscore>  (1) 
-7.1275049431030348

>  <r_i_glide_gscore_strain>  (1) 
0

>  <r_i_glide_hbond>  (1) 
-0.20000000000000001

>  <r_i_glide_ligand_efficiency>  (1) 
-0.29255932176511995

>  <r_i_glide_ligand_efficiency_ln>  (1) 
-1.5732677311987091

>  <r_i_glide_ligand_efficiency_sa>  (1) 
-0.81976272613573087

>  <r_i_glide_lipo>  (1) 
-2.3142500975693387

>  <r_i_glide_metal>  (1) 
-0

>  <r_i_glide_rewards>  (1) 
-2.6792820750653665

>  <r_lp_Energy>  (1) 
38.261415

>  <r_lp_tautomer_probability>  (1) 
1

>  <s_epik_Chemistry_Notes>  (1) 
This compound has an imine and may undergo hydrolysis.

>  <s_epik_cmdline>  (1) 
J2VwaWtfcHl0aG9uJywgJy1waHQnLCAnMS4wJywgJy1waCcsICc3LjQnLCAnLXRuJywgJzgnLCAnLW1hJywgJzUwMCcsICctaW1hZScsICc8aW5maWxlLm1hZT4nLCAnLW9tYWUnLCAnPG91dGZpbGUubWFlPic=

>  <s_epik_input>  (1) 
W0NIM11bQ0BASF0xTj1bQ0hdW0NAQEhdKFtDSDNdKVtDQEhdMVtDQEhdMltDSDJdTjJbQ0gyXVtDSDJdW0NIMl1PYyhbY0hdYzNGKVtjSF1bY0hdYzNG

>  <s_glide_docking_method>  (1) 
confgen

>  <s_i_glide_gridfile>  (1) 
gpcr_drd2_6luq_protein_autoprepared_prepared

>  <s_lp_Force_Field>  (1) 
S-OPLS

>  <s_lp_Variant>  (1) 
DiffSBDD_83-4

>  <s_m_source_file>  (1) 
generated_generic_title2_ligand_DiffSBDD_2026-06-23_prepared.sdf

>  <GenAI_Model>  (1) 
DiffSBDD

>  <Protein>  (1) 
generic_title2

$$$$
DiffSBDD_76
     RDKit          3D

  0  0  0  0  0  0  0  0  0  0999 V3000
M  V30 BEGIN CTAB
M  V30 COUNTS 54 57 0 0 1
M  V30 BEGIN ATOM
M  V30 1 N 8.975380 6.136181 -8.342373 0 CHG=1
M  V30 2 N 6.824276 4.495967 -15.375967 0
M  V30 3 C 10.127478 7.376986 -6.531461 0 CFG=2
M  V30 4 C 5.832811 5.494942 -14.992145 0
M  V30 5 F 10.159456 6.431635 -10.967635 0
M  V30 6 C 7.649482 4.456207 -16.399423 0
M  V30 7 C 10.896058 7.388946 -5.185380 0
M  V30 8 C 9.670976 6.005899 -7.052398 0
M  V30 9 C 6.250370 5.362491 -11.952373 0
M  V30 10 C 8.708173 4.888864 -9.067973 0
M  V30 11 C 12.300830 7.402928 -2.724767 0
M  V30 12 N 6.975487 3.372301 -14.654424 0
M  V30 13 C 12.545580 8.399333 -3.675918 0
M  V30 14 C 11.375337 6.390676 -3.002385 0
M  V30 15 C 12.226740 9.353677 -5.945269 0
M  V30 16 N 7.662425 5.506874 -17.301789 0
M  V30 17 C 11.311032 9.465718 -7.126623 0
M  V30 18 C 10.668715 6.390199 -4.227801 0
M  V30 19 C 7.014920 6.150492 -12.840212 0
M  V30 20 C 10.904225 8.109374 -7.635015 0
M  V30 21 O 13.258360 9.990504 -5.910849 0
M  V30 22 C 8.338010 6.496675 -12.509703 0
M  V30 23 N 8.402685 3.383059 -16.481272 0
M  V30 24 C 6.411797 6.629986 -14.146244 0
M  V30 25 C 6.807469 4.932469 -10.736137 0
M  V30 26 C 8.893032 6.074280 -11.292444 0
M  V30 27 C 8.126937 5.295317 -10.399333 0
M  V30 28 C 7.906051 2.712840 -15.372787 0
M  V30 29 C 11.849753 8.389669 -4.911656 0
M  V30 30 H 9.552081 6.692533 -8.957725 0
M  V30 31 H 9.214942 7.946444 -6.340366 0
M  V30 32 H 5.359431 5.893438 -15.890249 0
M  V30 33 H 5.040868 4.999004 -14.429138 0
M  V30 34 H 8.947998 5.590294 -6.362476 0
M  V30 35 H 10.524652 5.338573 -7.173735 0
M  V30 36 H 5.234882 5.094311 -12.201035 0
M  V30 37 H 7.997380 4.301220 -8.485817 0
M  V30 38 H 9.629244 4.321187 -9.214854 0
M  V30 39 H 12.835991 7.405881 -1.787141 0
M  V30 40 H 13.286088 9.162297 -3.475588 0
M  V30 41 H 11.192655 5.614727 -2.273520 0
M  V30 42 H 8.283979 5.506542 -18.096721 0
M  V30 43 H 7.059249 6.307742 -17.190304 0
M  V30 44 H 10.427873 9.990064 -6.783685 0
M  V30 45 H 11.775403 10.036730 -7.925504 0
M  V30 46 H 9.954978 5.616949 -4.420941 0
M  V30 47 H 11.784003 7.539603 -7.941105 0
M  V30 48 H 10.300435 8.267800 -8.529271 0
M  V30 49 H 8.923992 7.097134 -13.185025 0
M  V30 50 H 7.151905 7.185974 -14.722605 0
M  V30 51 H 5.615346 7.335088 -13.905384 0
M  V30 52 H 6.216300 4.339503 -10.052459 0
M  V30 53 H 8.252518 1.732313 -15.080574 0
M  V30 54 H 8.095737 6.640111 -8.234846 0
M  V30 END ATOM
M  V30 BEGIN BOND
M  V30 1 1 4 2
M  V30 2 1 6 2
M  V30 3 1 7 3
M  V30 4 1 8 1
M  V30 5 1 8 3
M  V30 6 1 10 1
M  V30 7 1 12 2
M  V30 8 1 13 11
M  V30 9 2 14 11
M  V30 10 1 16 6
M  V30 11 1 17 15
M  V30 12 2 18 7
M  V30 13 1 18 14
M  V30 14 1 19 9
M  V30 15 1 20 3
M  V30 16 1 20 17
M  V30 17 2 21 15
M  V30 18 2 22 19
M  V30 19 2 23 6
M  V30 20 1 24 4
M  V30 21 1 24 19
M  V30 22 2 25 9
M  V30 23 1 26 5
M  V30 24 1 26 22
M  V30 25 1 27 10
M  V30 26 1 27 25
M  V30 27 2 27 26
M  V30 28 2 28 12
M  V30 29 1 28 23
M  V30 30 1 29 7
M  V30 31 2 29 13
M  V30 32 1 29 15
M  V30 33 1 30 1
M  V30 34 1 3 31 CFG=1
M  V30 35 1 32 4
M  V30 36 1 33 4
M  V30 37 1 34 8
M  V30 38 1 35 8
M  V30 39 1 36 9
M  V30 40 1 37 10
M  V30 41 1 38 10
M  V30 42 1 39 11
M  V30 43 1 40 13
M  V30 44 1 41 14
M  V30 45 1 42 16
M  V30 46 1 43 16
M  V30 47 1 44 17
M  V30 48 1 45 17
M  V30 49 1 46 18
M  V30 50 1 47 20
M  V30 51 1 48 20
M  V30 52 1 49 22
M  V30 53 1 50 24
M  V30 54 1 51 24
M  V30 55 1 52 25
M  V30 56 1 53 28
M  V30 57 1 54 1
M  V30 END BOND
M  V30 END CTAB
M  END
>  <i_epik_Tot_Q>  (1) 
1

>  <i_epik_Tot_abs_Q>  (1) 
1

>  <i_i_glide_confnum>  (1) 
8

>  <i_i_glide_lignum>  (1) 
124

>  <i_i_glide_posenum>  (1) 
256

>  <i_i_glide_rotatable_bonds>  (1) 
7

>  <i_lp_mmshare_version>  (1) 
72125

>  <i_m_source_file_index>  (1) 
77

>  <i_f3d_flags>  (1) 
0

>  <num_sample>  (1) 
100

>  <b_lp_Chiralities_Consistent>  (1) 
1

>  <r_epik_Charging_Adjusted_Penalty>  (1) 
0.13114515656656739

>  <r_epik_Ionization_Penalty>  (1) 
0.066343571056588849

>  <r_epik_Ionization_Penalty_Charging>  (1) 
0.065572578283283764

>  <r_epik_Ionization_Penalty_Neutral>  (1) 
0.00077099277330508725

>  <r_epik_State_Penalty>  (1) 
0.065572578283283625

>  <r_glide_ring_energy>  (1) 
0

>  <r_i_docking_score>  (1) 
-6.4239135803997574

>  <r_i_glide_ecoul>  (1) 
-4.8229905126884027

>  <r_i_glide_eff_state_penalty>  (1) 
0.065572578283283625

>  <r_i_glide_einternal>  (1) 
3.7176985971443912

>  <r_i_glide_emodel>  (1) 
-39.24572181661599

>  <r_i_glide_emodel_strain>  (1) 
0.81771206057980805

>  <r_i_glide_energy>  (1) 
-21.766508291401152

>  <r_i_glide_erotb>  (1) 
0.52753328688631251

>  <r_i_glide_esite>  (1) 
-0.11674907217596586

>  <r_i_glide_evdw>  (1) 
-16.943517778712749

>  <r_i_glide_gscore>  (1) 
-6.4894861586830412

>  <r_i_glide_gscore_strain>  (1) 
0

>  <r_i_glide_hbond>  (1) 
-0.29763179271846557

>  <r_i_glide_ligand_efficiency>  (1) 
-0.22151426139309507

>  <r_i_glide_ligand_efficiency_ln>  (1) 
-1.4709133135182308

>  <r_i_glide_ligand_efficiency_sa>  (1) 
-0.68056199240737902

>  <r_i_glide_lipo>  (1) 
-2.1253217238759397

>  <r_i_glide_metal>  (1) 
-0

>  <r_i_glide_rewards>  (1) 
-2.9066923909600839

>  <r_lp_Energy>  (1) 
27.364193

>  <r_lp_tautomer_probability>  (1) 
0.99994999147066566

>  <s_epik_cmdline>  (1) 
J2VwaWtfcHl0aG9uJywgJy1waHQnLCAnMS4wJywgJy1waCcsICc3LjQnLCAnLXRuJywgJzgnLCAnLW1hJywgJzUwMCcsICctaW1hZScsICc8aW5maWxlLm1hZT4nLCAnLW9tYWUnLCAnPG91dGZpbGUubWFlPic=

>  <s_epik_input>  (1) 
W2NIXTFbY0hdW2NIXVtjSF1jKGMxMilDKD1PKVtDSDJdW0NIMl1bQ0BIXTJbQ0gyXVtOSF1bQ0gyXWMoYyhGKVtjSF0zKVtjSF1bY0hdYzNbQ0gyXVtDSDJdbjRjKFtOSDJdKW5bY0hdbjQ=

>  <s_glide_docking_method>  (1) 
confgen

>  <s_i_glide_gridfile>  (1) 
gpcr_drd2_6luq_protein_autoprepared_prepared

>  <s_lp_Force_Field>  (1) 
S-OPLS

>  <s_lp_Variant>  (1) 
DiffSBDD_76-1

>  <s_m_source_file>  (1) 
generated_generic_title2_ligand_DiffSBDD_2026-06-23_prepared.sdf

>  <GenAI_Model>  (1) 
DiffSBDD

>  <Protein>  (1) 
generic_title2

$$$$
DiffSBDD_10
     RDKit          3D

  0  0  0  0  0  0  0  0  0  0999 V3000
M  V30 BEGIN CTAB
M  V30 COUNTS 55 59 0 0 1
M  V30 BEGIN ATOM
M  V30 1 S 9.942732 7.295340 -10.925809 0
M  V30 2 C 12.248373 8.140120 -9.764693 0
M  V30 3 C 8.901392 5.252141 -12.505100 0 CFG=1
M  V30 4 C 10.899512 8.093977 -6.483289 0
M  V30 5 C 6.847115 4.177106 -11.224038 0
M  V30 6 C 11.375223 8.153509 -5.040250 0
M  V30 7 O 9.375779 6.579919 -9.780845 0
M  V30 8 C 5.992782 5.195802 -11.993369 0
M  V30 9 C 11.922322 9.441482 -3.026248 0
M  V30 10 C 5.809050 6.118794 -14.442799 0
M  V30 11 C 6.951434 6.432031 -15.421099 0
M  V30 12 N 10.051745 6.112077 -12.178442 0
M  V30 13 C 9.111716 3.763359 -12.574993 0
M  V30 14 C 6.539132 5.290753 -13.412785 0 CFG=1
M  V30 15 O 9.165838 8.390427 -11.516221 0
M  V30 16 C 11.474062 9.393504 -4.363497 0
M  V30 17 N 11.539766 7.586291 -10.785703 0 CHG=-1
M  V30 18 C 8.359950 4.352062 -11.395058 0 CFG=1
M  V30 19 C 11.734345 6.966763 -4.347675 0
M  V30 20 C 10.395274 6.760396 -6.989945 0
M  V30 21 C 12.276343 8.258957 -2.356364 0
M  V30 22 O 13.442510 7.990233 -9.512787 0
M  V30 23 O 8.158523 5.995977 -14.781922 0
M  V30 24 C 11.745857 9.021034 -7.373050 0
M  V30 25 C 12.179751 7.023935 -3.014726 0
M  V30 26 C 11.410166 9.090778 -8.894345 0
M  V30 27 C 9.427840 7.909563 -6.807345 0
M  V30 28 C 7.896220 5.977520 -13.391339 0 CFG=2
M  V30 29 H 6.575471 3.190367 -11.586807 0
M  V30 30 H 6.597338 4.199522 -10.163775 0
M  V30 31 H 4.958100 4.865041 -11.993927 0
M  V30 32 H 6.020560 6.171127 -11.504365 0
M  V30 33 H 11.993313 10.388855 -2.512962 0
M  V30 34 H 4.981802 5.589924 -14.914522 0
M  V30 35 H 5.424862 7.038293 -13.999309 0
M  V30 36 H 6.833980 5.929711 -16.381862 0
M  V30 37 H 6.974282 7.505936 -15.603194 0
M  V30 38 H 10.968140 5.675951 -12.255018 0
M  V30 39 H 8.545248 3.194357 -13.308292 0
M  V30 40 H 10.114075 3.387304 -12.382376 0
M  V30 41 H 6.631234 4.281960 -13.820889 0
M  V30 42 H 11.203879 10.307269 -4.868376 0
M  V30 43 H 8.914754 4.270806 -10.462761 0
M  V30 44 H 11.673958 6.011694 -4.842659 0
M  V30 45 H 10.794000 6.472309 -7.954204 0
M  V30 46 H 10.193564 5.922533 -6.330213 0
M  V30 47 H 12.623712 8.300704 -1.335563 0
M  V30 48 H 11.648710 10.032629 -6.989759 0
M  V30 49 H 12.797726 8.777286 -7.224144 0
M  V30 50 H 12.453519 6.114598 -2.500817 0
M  V30 51 H 10.343972 9.092625 -9.094445 0
M  V30 52 H 11.735428 10.073033 -9.240089 0
M  V30 53 H 8.729539 7.856951 -5.984924 0
M  V30 54 H 8.987356 8.312382 -7.714704 0
M  V30 55 H 7.772542 6.999092 -13.030564 0
M  V30 END ATOM
M  V30 BEGIN BOND
M  V30 1 1 6 4
M  V30 2 2 7 1
M  V30 3 1 8 5
M  V30 4 1 11 10
M  V30 5 1 12 1
M  V30 6 1 3 12 CFG=1
M  V30 7 1 13 3
M  V30 8 1 14 8
M  V30 9 1 14 10
M  V30 10 2 15 1
M  V30 11 2 16 6
M  V30 12 1 16 9
M  V30 13 1 17 1
M  V30 14 1 17 2
M  V30 15 1 18 3
M  V30 16 1 18 5
M  V30 17 1 18 13
M  V30 18 1 19 6
M  V30 19 1 20 4
M  V30 20 2 21 9
M  V30 21 2 22 2
M  V30 22 1 23 11
M  V30 23 1 24 4
M  V30 24 2 25 19
M  V30 25 1 25 21
M  V30 26 1 26 2
M  V30 27 1 26 24
M  V30 28 1 27 4
M  V30 29 1 27 20
M  V30 30 1 28 3
M  V30 31 1 28 14
M  V30 32 1 28 23
M  V30 33 1 29 5
M  V30 34 1 30 5
M  V30 35 1 31 8
M  V30 36 1 32 8
M  V30 37 1 33 9
M  V30 38 1 34 10
M  V30 39 1 35 10
M  V30 40 1 36 11
M  V30 41 1 37 11
M  V30 42 1 38 12
M  V30 43 1 39 13
M  V30 44 1 40 13
M  V30 45 1 14 41 CFG=3
M  V30 46 1 42 16
M  V30 47 1 18 43 CFG=1
M  V30 48 1 44 19
M  V30 49 1 45 20
M  V30 50 1 46 20
M  V30 51 1 47 21
M  V30 52 1 48 24
M  V30 53 1 49 24
M  V30 54 1 50 25
M  V30 55 1 51 26
M  V30 56 1 52 26
M  V30 57 1 53 27
M  V30 58 1 54 27
M  V30 59 1 28 55 CFG=1
M  V30 END BOND
M  V30 END CTAB
M  END
>  <i_epik_Tot_Q>  (1) 
-1

>  <i_epik_Tot_abs_Q>  (1) 
1

>  <i_i_glide_confnum>  (1) 
71

>  <i_i_glide_lignum>  (1) 
18

>  <i_i_glide_posenum>  (1) 
228

>  <i_i_glide_rotatable_bonds>  (1) 
8

>  <i_lp_mmshare_version>  (1) 
72125

>  <i_m_source_file_index>  (1) 
11

>  <i_f3d_flags>  (1) 
0

>  <num_sample>  (1) 
100

>  <b_lp_Chiralities_Consistent>  (1) 
1

>  <r_epik_Charging_Adjusted_Penalty>  (1) 
1.3035197679919888

>  <r_epik_Ionization_Penalty>  (1) 
0.91253719082261775

>  <r_epik_Ionization_Penalty_Charging>  (1) 
0.91200715878158756

>  <r_epik_Ionization_Penalty_Neutral>  (1) 
0.00053003204103024045

>  <r_epik_State_Penalty>  (1) 
0.39151260921040132

>  <r_glide_ring_energy>  (1) 
0

>  <r_i_docking_score>  (1) 
-6.4216438248410324

>  <r_i_glide_ecoul>  (1) 
-1.1201988893783037

>  <r_i_glide_eff_state_penalty>  (1) 
0.39151260921040132

>  <r_i_glide_einternal>  (1) 
15.517329875629091

>  <r_i_glide_emodel>  (1) 
-43.070218667495524

>  <r_i_glide_emodel_strain>  (1) 
2.4718835270069235

>  <r_i_glide_energy>  (1) 
-41.357941217709694

>  <r_i_glide_erotb>  (1) 
0.84406116630868921

>  <r_i_glide_esite>  (1) 
-0.23219516641158233

>  <r_i_glide_evdw>  (1) 
-40.237742328331393

>  <r_i_glide_gscore>  (1) 
-6.8131564340514341

>  <r_i_glide_gscore_strain>  (1) 
0

>  <r_i_glide_hbond>  (1) 
-0.019682176644590644

>  <r_i_glide_ligand_efficiency>  (1) 
-0.22934442231575117

>  <r_i_glide_ligand_efficiency_ln>  (1) 
-1.4823039424289151

>  <r_i_glide_ligand_efficiency_sa>  (1) 
-0.69642474356520467

>  <r_i_glide_lipo>  (1) 
-3.3338052057651599

>  <r_i_glide_metal>  (1) 
-0

>  <r_i_glide_rewards>  (1) 
-1.8916181017154756

>  <r_lp_Energy>  (1) 
22.621102

>  <s_epik_cmdline>  (1) 
J2VwaWtfcHl0aG9uJywgJy1waHQnLCAnMS4wJywgJy1waCcsICc3LjQnLCAnLXRuJywgJzgnLCAnLW1hJywgJzUwMCcsICctaW1hZScsICc8aW5maWxlLm1hZT4nLCAnLW9tYWUnLCAnPG91dGZpbGUubWFlPic=

>  <s_epik_input>  (1) 
W0NIMl0xW0NIMl1PW0NASF0yW0NASF0xW0NIMl1bQ0gyXVtDQEBIXShbQ0gyXTMpW0NAXTIzW05IXVMoPU8pKD1PKVtOSF1DKD1PKVtDSDJdW0NIMl1DNChbQ0gyXVtDSDJdNCljNVtjSF1bY0hdW2NIXVtjSF1bY0hdNQ==

>  <s_glide_docking_method>  (1) 
confgen

>  <s_i_glide_gridfile>  (1) 
gpcr_drd2_6luq_protein_autoprepared_prepared

>  <s_lp_Force_Field>  (1) 
S-OPLS

>  <s_lp_Variant>  (1) 
DiffSBDD_10-1

>  <s_m_source_file>  (1) 
generated_generic_title2_ligand_DiffSBDD_2026-06-23_prepared.sdf

>  <GenAI_Model>  (1) 
DiffSBDD

>  <Protein>  (1) 
generic_title2

$$$$
DiffSBDD_10
     RDKit          3D

  0  0  0  0  0  0  0  0  0  0999 V3000
M  V30 BEGIN CTAB
M  V30 COUNTS 55 59 0 0 1
M  V30 BEGIN ATOM
M  V30 1 S 9.781036 7.172422 -11.575482 0
M  V30 2 C 11.705728 7.613123 -9.909680 0
M  V30 3 C 7.358106 6.057152 -12.266039 0 CFG=1
M  V30 4 C 10.481239 8.189583 -6.564751 0
M  V30 5 C 6.559180 6.865159 -14.682390 0
M  V30 6 C 11.145877 8.105285 -5.204630 0
M  V30 7 O 9.366629 8.504411 -12.008015 0
M  V30 8 C 7.125745 5.523962 -15.196288 0
M  V30 9 C 11.982951 6.770608 -3.325397 0
M  V30 10 C 7.272671 3.010775 -14.424443 0
M  V30 11 C 7.333886 2.452430 -12.992534 0
M  V30 12 N 8.305436 6.384363 -11.185013 0
M  V30 13 C 5.966503 6.613960 -12.133597 0
M  V30 14 C 6.868650 4.441633 -14.148532 0 CFG=1
M  V30 15 O 10.494262 6.309854 -12.527368 0
M  V30 16 C 11.374992 6.848220 -4.593494 0
M  V30 17 N 10.438293 7.190960 -10.107808 0 CHG=-1
M  V30 18 C 6.884189 7.155252 -13.215208 0 CFG=1
M  V30 19 C 11.553723 9.277701 -4.527675 0
M  V30 20 C 9.404224 7.149189 -6.890341 0
M  V30 21 C 12.381189 7.939669 -2.662218 0
M  V30 22 O 12.525148 7.990228 -10.739918 0
M  V30 23 O 7.303796 3.590038 -12.122650 0
M  V30 24 C 11.471595 8.700501 -7.609172 0
M  V30 25 C 12.171678 9.190032 -3.261670 0
M  V30 26 C 12.092026 7.578366 -8.430631 0
M  V30 27 C 9.022219 8.584686 -6.769361 0
M  V30 28 C 7.674294 4.711596 -12.887221 0 CFG=2
M  V30 29 H 5.474572 6.868567 -14.793609 0
M  V30 30 H 6.928690 7.686085 -15.297276 0
M  V30 31 H 6.656710 5.258051 -16.143268 0
M  V30 32 H 8.196668 5.614538 -15.386104 0
M  V30 33 H 12.144543 5.807373 -2.863983 0
M  V30 34 H 6.572881 2.472442 -15.060582 0
M  V30 35 H 8.252000 2.970038 -14.899061 0
M  V30 36 H 6.475924 1.815973 -12.771733 0
M  V30 37 H 8.244735 1.874121 -12.832760 0
M  V30 38 H 7.834256 6.918851 -10.436629 0
M  V30 39 H 5.142025 5.968282 -12.419889 0
M  V30 40 H 5.754849 7.268020 -11.291519 0
M  V30 41 H 5.802551 4.431696 -13.917802 0
M  V30 42 H 11.075018 5.943351 -5.096972 0
M  V30 43 H 7.291863 8.144137 -13.049189 0
M  V30 44 H 11.391522 10.244964 -4.979708 0
M  V30 45 H 9.315857 6.721433 -7.882834 0
M  V30 46 H 9.044809 6.498066 -6.095912 0
M  V30 47 H 12.849417 7.877853 -1.691070 0
M  V30 48 H 10.975700 9.379511 -8.293610 0
M  V30 49 H 12.248867 9.301650 -7.141197 0
M  V30 50 H 12.480473 10.085285 -2.749039 0
M  V30 51 H 13.178763 7.600945 -8.341488 0
M  V30 52 H 11.775344 6.620187 -8.017794 0
M  V30 53 H 8.354664 8.789071 -5.947932 0
M  V30 54 H 8.744733 9.073967 -7.700722 0
M  V30 55 H 8.741365 4.655468 -13.106341 0
M  V30 END ATOM
M  V30 BEGIN BOND
M  V30 1 1 6 4
M  V30 2 2 7 1
M  V30 3 1 8 5
M  V30 4 1 11 10
M  V30 5 1 12 1
M  V30 6 1 3 12 CFG=1
M  V30 7 1 13 3
M  V30 8 1 14 8
M  V30 9 1 14 10
M  V30 10 2 15 1
M  V30 11 2 16 6
M  V30 12 1 16 9
M  V30 13 1 17 1
M  V30 14 1 17 2
M  V30 15 1 18 3
M  V30 16 1 18 5
M  V30 17 1 18 13
M  V30 18 1 19 6
M  V30 19 1 20 4
M  V30 20 2 21 9
M  V30 21 2 22 2
M  V30 22 1 23 11
M  V30 23 1 24 4
M  V30 24 2 25 19
M  V30 25 1 25 21
M  V30 26 1 26 2
M  V30 27 1 26 24
M  V30 28 1 27 4
M  V30 29 1 27 20
M  V30 30 1 28 3
M  V30 31 1 28 14
M  V30 32 1 28 23
M  V30 33 1 29 5
M  V30 34 1 30 5
M  V30 35 1 31 8
M  V30 36 1 32 8
M  V30 37 1 33 9
M  V30 38 1 34 10
M  V30 39 1 35 10
M  V30 40 1 36 11
M  V30 41 1 37 11
M  V30 42 1 38 12
M  V30 43 1 39 13
M  V30 44 1 40 13
M  V30 45 1 14 41 CFG=1
M  V30 46 1 42 16
M  V30 47 1 18 43 CFG=3
M  V30 48 1 44 19
M  V30 49 1 45 20
M  V30 50 1 46 20
M  V30 51 1 47 21
M  V30 52 1 48 24
M  V30 53 1 49 24
M  V30 54 1 50 25
M  V30 55 1 51 26
M  V30 56 1 52 26
M  V30 57 1 53 27
M  V30 58 1 54 27
M  V30 59 1 28 55 CFG=3
M  V30 END BOND
M  V30 END CTAB
M  END
>  <i_epik_Tot_Q>  (1) 
-1

>  <i_epik_Tot_abs_Q>  (1) 
1

>  <i_i_glide_confnum>  (1) 
265

>  <i_i_glide_lignum>  (1) 
18

>  <i_i_glide_posenum>  (1) 
364

>  <i_i_glide_rotatable_bonds>  (1) 
8

>  <i_lp_mmshare_version>  (1) 
72125

>  <i_m_source_file_index>  (1) 
11

>  <i_f3d_flags>  (1) 
0

>  <num_sample>  (1) 
100

>  <b_lp_Chiralities_Consistent>  (1) 
1

>  <r_epik_Charging_Adjusted_Penalty>  (1) 
1.3035197679919888

>  <r_epik_Ionization_Penalty>  (1) 
0.91253719082261775

>  <r_epik_Ionization_Penalty_Charging>  (1) 
0.91200715878158756

>  <r_epik_Ionization_Penalty_Neutral>  (1) 
0.00053003204103024045

>  <r_epik_State_Penalty>  (1) 
0.39151260921040132

>  <r_glide_ring_energy>  (1) 
0

>  <r_i_docking_score>  (1) 
-6.4134152308245742

>  <r_i_glide_ecoul>  (1) 
-4.5105312220721459

>  <r_i_glide_eff_state_penalty>  (1) 
0.39151260921040132

>  <r_i_glide_einternal>  (1) 
8.4522209680961389

>  <r_i_glide_emodel>  (1) 
-43.399288370123209

>  <r_i_glide_emodel_strain>  (1) 
0.65966715579685342

>  <r_i_glide_energy>  (1) 
-36.356664050954954

>  <r_i_glide_erotb>  (1) 
0.84406116630868921

>  <r_i_glide_esite>  (1) 
-0.16981872451181468

>  <r_i_glide_evdw>  (1) 
-31.846132828882808

>  <r_i_glide_gscore>  (1) 
-6.804927840034976

>  <r_i_glide_gscore_strain>  (1) 
0

>  <r_i_glide_hbond>  (1) 
-0.16

>  <r_i_glide_ligand_efficiency>  (1) 
-0.22905054395802052

>  <r_i_glide_ligand_efficiency_ln>  (1) 
-1.4804045413278979

>  <r_i_glide_ligand_efficiency_sa>  (1) 
-0.6955323557850468

>  <r_i_glide_lipo>  (1) 
-3.2386655303036269

>  <r_i_glide_metal>  (1) 
-0

>  <r_i_glide_rewards>  (1) 
-1.8116184267732616

>  <r_lp_Energy>  (1) 
22.621102

>  <s_epik_cmdline>  (1) 
J2VwaWtfcHl0aG9uJywgJy1waHQnLCAnMS4wJywgJy1waCcsICc3LjQnLCAnLXRuJywgJzgnLCAnLW1hJywgJzUwMCcsICctaW1hZScsICc8aW5maWxlLm1hZT4nLCAnLW9tYWUnLCAnPG91dGZpbGUubWFlPic=

>  <s_epik_input>  (1) 
W0NIMl0xW0NIMl1PW0NASF0yW0NASF0xW0NIMl1bQ0gyXVtDQEBIXShbQ0gyXTMpW0NAXTIzW05IXVMoPU8pKD1PKVtOSF1DKD1PKVtDSDJdW0NIMl1DNChbQ0gyXVtDSDJdNCljNVtjSF1bY0hdW2NIXVtjSF1bY0hdNQ==

>  <s_glide_docking_method>  (1) 
confgen

>  <s_i_glide_gridfile>  (1) 
gpcr_drd2_6luq_protein_autoprepared_prepared

>  <s_lp_Force_Field>  (1) 
S-OPLS

>  <s_lp_Variant>  (1) 
DiffSBDD_10-1

>  <s_m_source_file>  (1) 
generated_generic_title2_ligand_DiffSBDD_2026-06-23_prepared.sdf

>  <GenAI_Model>  (1) 
DiffSBDD

>  <Protein>  (1) 
generic_title2

$$$$
DiffSBDD_14
     RDKit          3D

  0  0  0  0  0  0  0  0  0  0999 V3000
M  V30 BEGIN CTAB
M  V30 COUNTS 46 47 0 0 1
M  V30 BEGIN ATOM
M  V30 1 N 9.710916 7.016143 -11.429094 0
M  V30 2 C 5.760850 5.551546 -11.234501 0
M  V30 3 N 6.526082 6.538764 -11.985025 0
M  V30 4 C 11.775412 9.239755 -5.984546 0
M  V30 5 C 8.801598 6.000173 -11.175319 0
M  V30 6 C 6.194705 4.176397 -11.758977 0
M  V30 7 C 10.309887 7.310398 -9.022577 0
M  V30 8 C 6.861006 4.421477 -14.179881 0
M  V30 9 C 11.979379 9.101414 -4.597866 0
M  V30 10 C 11.386721 8.126991 -6.760851 0
M  V30 11 C 11.793392 7.846694 -3.974417 0
M  V30 12 C 11.375405 6.736829 -4.752170 0
M  V30 13 C 11.173931 6.877799 -6.138938 0
M  V30 14 C 10.408649 7.590227 -10.523218 0
M  V30 15 O 8.712597 5.274453 -10.180415 0
M  V30 16 C 8.483827 3.361993 -12.611973 0
M  V30 17 C 11.244027 8.275494 -8.269017 0
M  V30 18 N 12.244739 8.739722 -1.665821 0
M  V30 19 N 12.037885 7.705208 -2.586465 0
M  V30 20 C 7.784866 5.867213 -12.334841 0 CFG=1
M  V30 21 C 7.365886 4.428445 -12.720076 0
M  V30 22 O 11.509254 6.538283 -2.017949 0
M  V30 23 H 6.013365 5.635911 -10.176676 0
M  V30 24 H 4.690671 5.728627 -11.316558 0
M  V30 25 H 6.690500 7.329068 -11.363418 0
M  V30 26 H 11.937996 10.197025 -6.457509 0
M  V30 27 H 6.506491 3.590227 -10.899181 0
M  V30 28 H 5.375483 3.643057 -12.240708 0
M  V30 29 H 10.611625 6.279629 -8.843987 0
M  V30 30 H 9.282127 7.434689 -8.678537 0
M  V30 31 H 6.043750 5.128098 -14.328175 0
M  V30 32 H 7.656465 4.691361 -14.875160 0
M  V30 33 H 6.494386 3.436031 -14.468493 0
M  V30 34 H 12.293122 9.953920 -4.015565 0
M  V30 35 H 11.225037 5.773150 -4.289987 0
M  V30 36 H 10.876610 6.021526 -6.723718 0
M  V30 37 H 11.145708 8.352956 -10.785023 0
M  V30 38 H 8.818758 3.190226 -11.590012 0
M  V30 39 H 8.149059 2.396556 -12.992286 0
M  V30 40 H 9.361635 3.659047 -13.185025 0
M  V30 41 H 10.973105 9.301467 -8.500176 0
M  V30 42 H 12.255310 8.156702 -8.662008 0
M  V30 43 H 12.780181 9.491320 -2.097396 0
M  V30 44 H 11.344655 9.105057 -1.357119 0
M  V30 45 H 8.215319 6.366500 -13.204800 0
M  V30 46 H 12.224138 5.921008 -1.970586 0
M  V30 END ATOM
M  V30 BEGIN BOND
M  V30 1 1 3 2
M  V30 2 1 5 1
M  V30 3 1 6 2
M  V30 4 2 9 4
M  V30 5 1 10 4
M  V30 6 1 11 9
M  V30 7 2 12 11
M  V30 8 2 13 10
M  V30 9 1 13 12
M  V30 10 2 14 1
M  V30 11 1 14 7
M  V30 12 2 15 5
M  V30 13 1 17 7
M  V30 14 1 17 10
M  V30 15 1 19 11
M  V30 16 1 19 18
M  V30 17 1 20 3
M  V30 18 1 20 5
M  V30 19 1 21 6
M  V30 20 1 21 8
M  V30 21 1 21 16
M  V30 22 1 21 20
M  V30 23 1 22 19
M  V30 24 1 23 2
M  V30 25 1 24 2
M  V30 26 1 25 3
M  V30 27 1 26 4
M  V30 28 1 27 6
M  V30 29 1 28 6
M  V30 30 1 29 7
M  V30 31 1 30 7
M  V30 32 1 31 8
M  V30 33 1 32 8
M  V30 34 1 33 8
M  V30 35 1 34 9
M  V30 36 1 35 12
M  V30 37 1 36 13
M  V30 38 1 37 14
M  V30 39 1 38 16
M  V30 40 1 39 16
M  V30 41 1 40 16
M  V30 42 1 41 17
M  V30 43 1 42 17
M  V30 44 1 43 18
M  V30 45 1 44 18
M  V30 46 1 20 45 CFG=3
M  V30 47 1 46 22
M  V30 END BOND
M  V30 END CTAB
M  END
>  <i_epik_Tot_Q>  (1) 
0

>  <i_epik_Tot_abs_Q>  (1) 
0

>  <i_i_glide_confnum>  (1) 
551

>  <i_i_glide_lignum>  (1) 
27

>  <i_i_glide_posenum>  (1) 
216

>  <i_i_glide_rotatable_bonds>  (1) 
7

>  <i_lp_mmshare_version>  (1) 
72125

>  <i_m_source_file_index>  (1) 
15

>  <i_f3d_flags>  (1) 
0

>  <num_sample>  (1) 
100

>  <b_lp_Chiralities_Consistent>  (1) 
1

>  <r_epik_Charging_Adjusted_Penalty>  (1) 
0.22580691505965048

>  <r_epik_Ionization_Penalty>  (1) 
0.22909364713476901

>  <r_epik_Ionization_Penalty_Charging>  (1) 
0

>  <r_epik_Ionization_Penalty_Neutral>  (1) 
0.22909364713476901

>  <r_epik_State_Penalty>  (1) 
0.22580691505965048

>  <r_glide_ring_energy>  (1) 
0.68288214129490443

>  <r_i_docking_score>  (1) 
-6.4104701043181418

>  <r_i_glide_ecoul>  (1) 
-3.7395791363720434

>  <r_i_glide_eff_state_penalty>  (1) 
0.22580691505965048

>  <r_i_glide_einternal>  (1) 
3.9813076189568051

>  <r_i_glide_emodel>  (1) 
-55.216468931906476

>  <r_i_glide_emodel_strain>  (1) 
0.6161521976764206

>  <r_i_glide_energy>  (1) 
-41.350138411449706

>  <r_i_glide_erotb>  (1) 
1.1941897600298523

>  <r_i_glide_esite>  (1) 
-0.077682791743045848

>  <r_i_glide_evdw>  (1) 
-37.610559275077662

>  <r_i_glide_gscore>  (1) 
-6.6362770193777925

>  <r_i_glide_gscore_strain>  (1) 
0

>  <r_i_glide_hbond>  (1) 
-0.46939876740157288

>  <r_i_glide_ligand_efficiency>  (1) 
-0.29138500474173373

>  <r_i_glide_ligand_efficiency_ln>  (1) 
-1.5669527210737741

>  <r_i_glide_ligand_efficiency_sa>  (1) 
-0.8164722436495444

>  <r_i_glide_lipo>  (1) 
-2.3242732798039532

>  <r_i_glide_metal>  (1) 
-0

>  <r_i_glide_rewards>  (1) 
-2.5176471062493828

>  <r_lp_Energy>  (1) 
34.090119999999999

>  <s_epik_Chemistry_Notes>  (1) 
This compound has an imine and may undergo hydrolysis. This compound has a N-S or N-O group and may undergo hydrolysis at high or low pH.

>  <s_epik_cmdline>  (1) 
J2VwaWtfcHl0aG9uJywgJy1waHQnLCAnMS4wJywgJy1waCcsICc3LjQnLCAnLXRuJywgJzgnLCAnLW1hJywgJzUwMCcsICctaW1hZScsICc8aW5maWxlLm1hZT4nLCAnLW9tYWUnLCAnPG91dGZpbGUubWFlPic=

>  <s_epik_input>  (1) 
W0NIM11DMShbQ0gzXSlbQ0gyXVtDSDJdW05IXVtDQEhdMUMoPU8pL049W0NIXVxbQ0gyXVtDSDJdYzJbY0hdW2NIXWMoW2NIXVtjSF0yKU4oW05IMl0pW09IXQ==

>  <s_glide_docking_method>  (1) 
confgen

>  <s_i_glide_gridfile>  (1) 
gpcr_drd2_6luq_protein_autoprepared_prepared

>  <s_lp_Force_Field>  (1) 
S-OPLS

>  <s_lp_Variant>  (1) 
DiffSBDD_14-2

>  <s_m_source_file>  (1) 
generated_generic_title2_ligand_DiffSBDD_2026-06-23_prepared.sdf

>  <GenAI_Model>  (1) 
DiffSBDD

>  <Protein>  (1) 
generic_title2

$$$$
DiffSBDD_81
     RDKit          3D

  0  0  0  0  0  0  0  0  0  0999 V3000
M  V30 BEGIN CTAB
M  V30 COUNTS 67 70 0 0 1
M  V30 BEGIN ATOM
M  V30 1 C 8.645588 5.885406 -11.886654 0 CFG=1
M  V30 2 C 10.665136 6.596751 -5.191242 0
M  V30 3 O 12.574987 9.190185 -1.914878 0
M  V30 4 C 12.975817 8.962112 -3.254275 0
M  V30 5 C 7.723294 3.804183 -13.075650 0
M  V30 6 C 7.652729 2.314866 -14.890692 0
M  V30 7 C 7.939452 2.511343 -13.504786 0
M  V30 8 C 9.900475 5.791903 -12.799986 0
M  V30 9 O 10.975739 10.638570 -4.889058 0
M  V30 10 O 6.756957 4.581998 -10.995486 0
M  V30 11 C 9.890525 7.642622 -10.305067 0 CFG=2
M  V30 12 C 7.010160 0.824162 -16.688246 0
M  V30 13 C 6.760759 6.291277 -14.483168 0 CFG=1
M  V30 14 C 9.143630 6.293798 -10.478106 0
M  V30 15 C 7.029825 4.773588 -14.950064 0
M  V30 16 O 12.658185 9.592430 -6.133307 0
M  V30 17 N 7.657576 6.881545 -12.374735 0
M  V30 18 C 11.784745 6.283903 -3.101533 0
M  V30 19 C 7.270730 4.644594 -14.048974 0
M  V30 20 C 11.777347 8.518976 -4.101166 0 CFG=1
M  V30 21 O 7.775387 7.052409 -13.828399 0
M  V30 22 C 7.951247 4.472391 -11.743205 0 CFG=2
M  V30 23 C 10.751907 7.723840 -9.019988 0
M  V30 24 C 7.190515 3.492119 -15.644873 0
M  V30 25 C 10.974690 6.524697 -6.672531 0 CFG=2
M  V30 26 C 10.115010 7.161783 -7.760508 0 CFG=2
M  V30 27 O 8.975423 8.714427 -10.385041 0
M  V30 28 O 7.636576 -0.010472 -14.625352 0
M  V30 29 C 10.066477 5.674780 -7.528738 0
M  V30 30 C 11.514308 9.420555 -5.334741 0
M  V30 31 N 7.826055 1.059531 -15.502130 0
M  V30 32 N 11.774044 7.058754 -4.349685 0
M  V30 33 H 9.775568 7.196614 -5.029735 0
M  V30 34 H 10.391051 5.590263 -4.892102 0
M  V30 35 H 13.158574 9.848364 -1.543222 0
M  V30 36 H 13.728488 8.174911 -3.274103 0
M  V30 37 H 13.414988 9.883086 -3.630539 0
M  V30 38 H 8.307973 1.728919 -12.857746 0
M  V30 39 H 10.575009 5.048617 -12.384833 0
M  V30 40 H 9.701414 5.474557 -13.821131 0
M  V30 41 H 10.446886 6.725737 -12.888800 0
M  V30 42 H 10.633399 11.099069 -5.641349 0
M  V30 43 H 6.357760 5.407335 -11.233424 0
M  V30 44 H 10.591389 7.805555 -11.116849 0
M  V30 45 H 7.408643 1.375878 -17.540232 0
M  V30 46 H 7.018957 -0.232056 -16.959666 0
M  V30 47 H 5.972768 1.118525 -16.527515 0
M  V30 48 H 5.762091 6.454190 -14.079291 0
M  V30 49 H 8.333261 6.223191 -9.757923 0
M  V30 50 H 9.827371 5.503602 -10.184600 0
M  V30 51 H 13.387650 9.829740 -5.582372 0
M  V30 52 H 7.898503 7.785076 -11.979255 0
M  V30 53 H 12.050191 5.247391 -3.313434 0
M  V30 54 H 12.527822 6.623874 -2.381278 0
M  V30 55 H 10.812866 6.299080 -2.609185 0
M  V30 56 H 10.975450 8.790215 -3.454206 0
M  V30 57 H 8.614513 3.802581 -11.192307 0
M  V30 58 H 11.676889 7.172949 -9.194950 0
M  V30 59 H 11.054895 8.755201 -8.829700 0
M  V30 60 H 6.975135 3.419943 -16.697721 0
M  V30 61 H 12.034621 6.397576 -6.888005 0
M  V30 62 H 9.232416 7.711567 -7.432762 0
M  V30 63 H 8.130945 8.422789 -9.985329 0
M  V30 64 H 6.716127 -0.012068 -14.402647 0
M  V30 65 H 9.128884 5.298108 -7.129762 0
M  V30 66 H 10.574657 4.998787 -8.208667 0
M  V30 67 H 10.720119 9.031775 -5.962713 0
M  V30 END ATOM
M  V30 BEGIN BOND
M  V30 1 1 4 3
M  V30 2 2 7 5
M  V30 3 1 7 6
M  V30 4 1 1 8 CFG=3
M  V30 5 1 14 1
M  V30 6 1 14 11
M  V30 7 1 15 13
M  V30 8 1 17 1
M  V30 9 1 19 5
M  V30 10 1 19 13
M  V30 11 2 19 15
M  V30 12 1 20 4
M  V30 13 1 21 13
M  V30 14 1 21 17
M  V30 15 1 22 1
M  V30 16 1 22 5
M  V30 17 1 22 10
M  V30 18 1 23 11
M  V30 19 2 24 6
M  V30 20 1 24 15
M  V30 21 1 25 2
M  V30 22 1 26 23
M  V30 23 1 26 25
M  V30 24 1 27 11
M  V30 25 1 29 25
M  V30 26 1 29 26
M  V30 27 1 30 9
M  V30 28 1 30 16
M  V30 29 1 30 20
M  V30 30 1 31 6
M  V30 31 1 31 12
M  V30 32 1 31 28
M  V30 33 1 32 2
M  V30 34 1 32 18
M  V30 35 1 32 20
M  V30 36 1 33 2
M  V30 37 1 34 2
M  V30 38 1 35 3
M  V30 39 1 36 4
M  V30 40 1 37 4
M  V30 41 1 38 7
M  V30 42 1 39 8
M  V30 43 1 40 8
M  V30 44 1 41 8
M  V30 45 1 42 9
M  V30 46 1 43 10
M  V30 47 1 11 44 CFG=3
M  V30 48 1 45 12
M  V30 49 1 46 12
M  V30 50 1 47 12
M  V30 51 1 13 48 CFG=1
M  V30 52 1 49 14
M  V30 53 1 50 14
M  V30 54 1 51 16
M  V30 55 1 52 17
M  V30 56 1 53 18
M  V30 57 1 54 18
M  V30 58 1 55 18
M  V30 59 1 20 56 CFG=1
M  V30 60 1 22 57 CFG=1
M  V30 61 1 58 23
M  V30 62 1 59 23
M  V30 63 1 60 24
M  V30 64 1 25 61 CFG=1
M  V30 65 1 26 62 CFG=1
M  V30 66 1 63 27
M  V30 67 1 64 28
M  V30 68 1 65 29
M  V30 69 1 66 29
M  V30 70 1 67 30
M  V30 END BOND
M  V30 END CTAB
M  END
>  <i_epik_Tot_Q>  (1) 
0

>  <i_epik_Tot_abs_Q>  (1) 
0

>  <i_i_glide_confnum>  (1) 
4554

>  <i_i_glide_lignum>  (1) 
145

>  <i_i_glide_posenum>  (1) 
197

>  <i_i_glide_rotatable_bonds>  (1) 
16

>  <i_lp_mmshare_version>  (1) 
72125

>  <i_m_source_file_index>  (1) 
82

>  <i_f3d_flags>  (1) 
0

>  <num_sample>  (1) 
100

>  <b_lp_Chiralities_Consistent>  (1) 
1

>  <r_epik_Charging_Adjusted_Penalty>  (1) 
0.53465553772288132

>  <r_epik_Ionization_Penalty>  (1) 
0.53502174055569018

>  <r_epik_Ionization_Penalty_Charging>  (1) 
0

>  <r_epik_Ionization_Penalty_Neutral>  (1) 
0.53502174055569018

>  <r_epik_State_Penalty>  (1) 
0.53465553772288132

>  <r_glide_ring_energy>  (1) 
0

>  <r_i_docking_score>  (1) 
-6.4098892289499956

>  <r_i_glide_ecoul>  (1) 
-13.58851772304042

>  <r_i_glide_eff_state_penalty>  (1) 
0.53465553772288132

>  <r_i_glide_einternal>  (1) 
16.380522046929752

>  <r_i_glide_emodel>  (1) 
-44.612898803616339

>  <r_i_glide_emodel_strain>  (1) 
2.2441162674108455

>  <r_i_glide_energy>  (1) 
-39.363783917466826

>  <r_i_glide_erotb>  (1) 
0.97589078675502272

>  <r_i_glide_esite>  (1) 
-0.058445284291660182

>  <r_i_glide_evdw>  (1) 
-25.775266194426408

>  <r_i_glide_gscore>  (1) 
-6.9445447666728768

>  <r_i_glide_gscore_strain>  (1) 
0

>  <r_i_glide_hbond>  (1) 
-0.41965008996425057

>  <r_i_glide_ligand_efficiency>  (1) 
-0.20030903840468736

>  <r_i_glide_ligand_efficiency_ln>  (1) 
-1.4353489253431693

>  <r_i_glide_ligand_efficiency_sa>  (1) 
-0.63594155656467843

>  <r_i_glide_lipo>  (1) 
-2.5397922495910654

>  <r_i_glide_metal>  (1) 
-0

>  <r_i_glide_rewards>  (1) 
-1.5755069614035393

>  <r_lp_Energy>  (1) 
74.761414000000002

>  <s_epik_Chemistry_Notes>  (1) 
This compound contains an acetal/aminal-like group ( X-CH(R)-Y where X, Y are N, S, or O) that may be acid/base labile, releasing an aldehyde. This compound has a N-S or N-O group and may undergo hydrolysis at high or low pH.

>  <s_epik_cmdline>  (1) 
J2VwaWtfcHl0aG9uJywgJy1waHQnLCAnMS4wJywgJy1waCcsICc3LjQnLCAnLXRuJywgJzgnLCAnLW1hJywgJzUwMCcsICctaW1hZScsICc8aW5maWxlLm1hZT4nLCAnLW9tYWUnLCAnPG91dGZpbGUubWFlPic=

>  <s_epik_input>  (1) 
W0NIM11OKFtPSF0pYyhbY0hdMSlbY0hdYyhjMmMxMylbQ0BASF0yT1tOSF1bQ0BdKFtDSDNdKShbQ0BIXTNbT0hdKVtDSDJdW0NAQEhdKFtPSF0pW0NIMl1bQ0BASF0oW0NIMl00KVtDQEhdNFtDSDJdTihbQ0gzXSlbQ0BASF0oW0NIMl1bT0hdKVtDSF0oW09IXSlbT0hd

>  <s_glide_docking_method>  (1) 
confgen

>  <s_i_glide_gridfile>  (1) 
gpcr_drd2_6luq_protein_autoprepared_prepared

>  <s_lp_Force_Field>  (1) 
S-OPLS

>  <s_lp_Variant>  (1) 
DiffSBDD_81-3

>  <s_m_source_file>  (1) 
generated_generic_title2_ligand_DiffSBDD_2026-06-23_prepared.sdf

>  <GenAI_Model>  (1) 
DiffSBDD

>  <Protein>  (1) 
generic_title2

$$$$
DiffSBDD_67
     RDKit          3D

  0  0  0  0  0  0  0  0  0  0999 V3000
M  V30 BEGIN CTAB
M  V30 COUNTS 67 69 0 0 1
M  V30 BEGIN ATOM
M  V30 1 C 6.159297 6.089583 -18.256803 0
M  V30 2 C 7.540479 5.830397 -14.715750 0
M  V30 3 C 5.415606 4.488971 -20.122343 0
M  V30 4 C 7.203841 4.390325 -10.146529 0
M  V30 5 F 4.343482 7.382594 -19.140715 0
M  V30 6 C 9.110403 6.365439 -9.024385 0
M  V30 7 C 11.354288 8.720136 -6.693272 0
M  V30 8 C 11.602795 7.679131 -4.373345 0
M  V30 9 C 10.003721 7.575345 -8.619798 0 CFG=2
M  V30 10 C 10.679580 6.357664 -6.396951 0
M  V30 11 C 5.606573 7.162254 -15.700645 0
M  V30 12 C 6.674064 6.246908 -15.867265 0
M  V30 13 C 10.768795 6.495239 -4.867652 0
M  V30 14 C 6.080347 4.279682 -12.276062 0
M  V30 15 C 4.822367 7.533991 -16.807530 0
M  V30 16 C 11.290135 7.552224 -9.443776 0
M  V30 17 C 5.096404 7.005647 -18.083411 0
M  V30 18 C 7.297182 5.223399 -12.283593 0 CFG=2
M  V30 19 C 5.929888 3.861162 -10.812629 0
M  V30 20 O 8.516526 5.091166 -14.847429 0
M  V30 21 C 6.944412 5.714097 -17.148032 0
M  V30 22 N 7.490541 5.623768 -10.869988 0 CFG=2 CHG=1
M  V30 23 F 4.259529 5.065164 -20.447292 0
M  V30 24 C 6.796041 6.584910 -20.686562 0
M  V30 25 C 8.783808 6.284940 -10.544873 0
M  V30 26 C 6.469659 5.506120 -19.638117 0
M  V30 27 C 10.276412 7.678210 -7.078416 0
M  V30 28 C 7.169539 6.364655 -13.313002 0
M  V30 29 F 7.290777 6.025740 -21.790962 0
M  V30 30 C 11.435841 8.972913 -5.182502 0
M  V30 31 H 5.760761 3.969106 -21.016752 0
M  V30 32 H 5.207894 3.733815 -19.363470 0
M  V30 33 H 7.119886 4.501937 -9.068694 0
M  V30 34 H 8.071091 3.777213 -10.384910 0
M  V30 35 H 8.202479 6.390208 -8.421305 0
M  V30 36 H 9.601408 5.429452 -8.760468 0
M  V30 37 H 12.334996 8.393827 -7.038278 0
M  V30 38 H 11.167133 9.661651 -7.185483 0
M  V30 39 H 11.396067 7.867962 -3.321055 0
M  V30 40 H 12.626785 7.361994 -4.385025 0
M  V30 41 H 9.465911 8.482577 -8.902212 0
M  V30 42 H 9.941039 5.590866 -6.610170 0
M  V30 43 H 11.628404 5.995910 -6.793256 0
M  V30 44 H 5.385334 7.586107 -14.738293 0
M  V30 45 H 9.775441 6.561146 -4.457623 0
M  V30 46 H 11.184696 5.590230 -4.436989 0
M  V30 47 H 5.171778 4.782202 -12.611653 0
M  V30 48 H 6.241875 3.422628 -12.931188 0
M  V30 49 H 4.009149 8.232151 -16.678931 0
M  V30 50 H 11.775750 6.627116 -9.185437 0
M  V30 51 H 11.103660 7.558659 -10.516401 0
M  V30 52 H 11.962821 8.384095 -9.241821 0
M  V30 53 H 8.173478 4.612046 -12.510741 0
M  V30 54 H 5.058848 4.356994 -10.385043 0
M  V30 55 H 5.775366 2.790188 -10.688600 0
M  V30 56 H 7.759827 5.016572 -17.279189 0
M  V30 57 H 5.922117 7.166039 -20.979561 0
M  V30 58 H 7.556800 7.274150 -20.318211 0
M  V30 59 H 9.596626 5.777753 -11.066641 0
M  V30 60 H 8.731111 7.293897 -10.954928 0
M  V30 61 H 7.389804 4.933180 -19.516519 0
M  V30 62 H 9.332599 7.994887 -6.631029 0
M  V30 63 H 7.864621 7.170966 -13.081726 0
M  V30 64 H 6.169164 6.770749 -13.216138 0
M  V30 65 H 10.556194 9.512325 -4.850172 0
M  V30 66 H 12.270475 9.643329 -4.971680 0
M  V30 67 H 6.780912 6.295440 -10.591282 0
M  V30 END ATOM
M  V30 BEGIN BOND
M  V30 1 1 9 6
M  V30 2 1 12 2
M  V30 3 1 12 11
M  V30 4 1 13 8
M  V30 5 1 13 10
M  V30 6 2 15 11
M  V30 7 1 16 9
M  V30 8 2 17 1
M  V30 9 1 17 5
M  V30 10 1 17 15
M  V30 11 1 18 14
M  V30 12 1 19 4
M  V30 13 1 19 14
M  V30 14 2 20 2
M  V30 15 1 21 1
M  V30 16 2 21 12
M  V30 17 1 22 4
M  V30 18 1 22 18
M  V30 19 1 23 3
M  V30 20 1 25 6
M  V30 21 1 25 22
M  V30 22 1 26 1
M  V30 23 1 26 3
M  V30 24 1 26 24
M  V30 25 1 27 7
M  V30 26 1 27 9
M  V30 27 1 27 10
M  V30 28 1 28 2
M  V30 29 1 28 18
M  V30 30 1 29 24
M  V30 31 1 30 7
M  V30 32 1 30 8
M  V30 33 1 31 3
M  V30 34 1 32 3
M  V30 35 1 33 4
M  V30 36 1 34 4
M  V30 37 1 35 6
M  V30 38 1 36 6
M  V30 39 1 37 7
M  V30 40 1 38 7
M  V30 41 1 39 8
M  V30 42 1 40 8
M  V30 43 1 9 41 CFG=3
M  V30 44 1 42 10
M  V30 45 1 43 10
M  V30 46 1 44 11
M  V30 47 1 45 13
M  V30 48 1 46 13
M  V30 49 1 47 14
M  V30 50 1 48 14
M  V30 51 1 49 15
M  V30 52 1 50 16
M  V30 53 1 51 16
M  V30 54 1 52 16
M  V30 55 1 18 53 CFG=3
M  V30 56 1 54 19
M  V30 57 1 55 19
M  V30 58 1 56 21
M  V30 59 1 57 24
M  V30 60 1 58 24
M  V30 61 1 59 25
M  V30 62 1 60 25
M  V30 63 1 61 26
M  V30 64 1 62 27
M  V30 65 1 63 28
M  V30 66 1 64 28
M  V30 67 1 65 30
M  V30 68 1 66 30
M  V30 69 1 22 67 CFG=1
M  V30 END BOND
M  V30 END CTAB
M  END
>  <i_epik_Tot_Q>  (1) 
1

>  <i_epik_Tot_abs_Q>  (1) 
1

>  <i_i_glide_confnum>  (1) 
331

>  <i_i_glide_lignum>  (1) 
110

>  <i_i_glide_posenum>  (1) 
177

>  <i_i_glide_rotatable_bonds>  (1) 
10

>  <i_lp_mmshare_version>  (1) 
72125

>  <i_m_source_file_index>  (1) 
68

>  <i_f3d_flags>  (1) 
0

>  <num_sample>  (1) 
100

>  <b_lp_Chiralities_Consistent>  (1) 
1

>  <r_epik_Charging_Adjusted_Penalty>  (1) 
0.0091991127420811905

>  <r_epik_Ionization_Penalty>  (1) 
0.0045995563710408641

>  <r_epik_Ionization_Penalty_Charging>  (1) 
0.0045995563710406013

>  <r_epik_Ionization_Penalty_Neutral>  (1) 
2.6311653613664267e-16

>  <r_epik_State_Penalty>  (1) 
0.0045995563710405883

>  <r_glide_ring_energy>  (1) 
0

>  <r_i_docking_score>  (1) 
-6.4085327278652411

>  <r_i_glide_ecoul>  (1) 
-5.1130606513675678

>  <r_i_glide_eff_state_penalty>  (1) 
0.0045995563710405883

>  <r_i_glide_einternal>  (1) 
11.500919777999698

>  <r_i_glide_emodel>  (1) 
-34.320215268182935

>  <r_i_glide_emodel_strain>  (1) 
2.6027779061888907

>  <r_i_glide_energy>  (1) 
-31.949589005241055

>  <r_i_glide_erotb>  (1) 
0.77002039440311598

>  <r_i_glide_esite>  (1) 
-0.10000000000000001

>  <r_i_glide_evdw>  (1) 
-26.836528353873486

>  <r_i_glide_gscore>  (1) 
-6.4131322842362817

>  <r_i_glide_gscore_strain>  (1) 
0

>  <r_i_glide_hbond>  (1) 
-0.12420641809858911

>  <r_i_glide_ligand_efficiency>  (1) 
-0.21361775759550802

>  <r_i_glide_ligand_efficiency_ln>  (1) 
-1.456088462327721

>  <r_i_glide_ligand_efficiency_sa>  (1) 
-0.66376004024973445

>  <r_i_glide_lipo>  (1) 
-2.9693622495557581

>  <r_i_glide_metal>  (1) 
-0

>  <r_i_glide_rewards>  (1) 
-1.8807984955862402

>  <r_lp_Energy>  (1) 
29.482433999999998

>  <r_lp_tautomer_probability>  (1) 
0.99990000499974985

>  <s_epik_cmdline>  (1) 
J2VwaWtfcHl0aG9uJywgJy1waHQnLCAnMS4wJywgJy1waCcsICc3LjQnLCAnLXRuJywgJzgnLCAnLW1hJywgJzUwMCcsICctaW1hZScsICc8aW5maWxlLm1hZT4nLCAnLW9tYWUnLCAnPG91dGZpbGUubWFlPic=

>  <s_epik_input>  (1) 
RltDSDJdW0NIXShbQ0gyXUYpYzFjKEYpW2NIXVtjSF1jKFtjSF0xKUMoPU8pW0NIMl1bQ0BASF0yW0NIMl1bQ0gyXVtDSDJdTjJbQ0gyXVtDSDJdW0NASF0oW0NIM10pW0NIXTNbQ0gyXVtDSDJdW0NIMl1bQ0gyXVtDSDJdMw==

>  <s_glide_docking_method>  (1) 
confgen

>  <s_i_glide_gridfile>  (1) 
gpcr_drd2_6luq_protein_autoprepared_prepared

>  <s_lp_Force_Field>  (1) 
S-OPLS

>  <s_lp_Variant>  (1) 
DiffSBDD_67-2

>  <s_m_source_file>  (1) 
generated_generic_title2_ligand_DiffSBDD_2026-06-23_prepared.sdf

>  <GenAI_Model>  (1) 
DiffSBDD

>  <Protein>  (1) 
generic_title2

$$$$
DiffSBDD_33
     RDKit          3D

  0  0  0  0  0  0  0  0  0  0999 V3000
M  V30 BEGIN CTAB
M  V30 COUNTS 48 50 0 0 1
M  V30 BEGIN ATOM
M  V30 1 C 6.589627 5.589627 -16.542643 0
M  V30 2 C 10.291640 7.787449 -8.822102 0
M  V30 3 C 7.572727 4.700308 -17.074174 0 CFG=1
M  V30 4 C 9.374991 6.592432 -6.795045 0
M  V30 5 N 7.578946 4.390543 -15.624706 0
M  V30 6 C 6.527308 5.325872 -15.083065 0 CFG=1
M  V30 7 C 11.106948 8.404325 -6.495630 0
M  V30 8 O 7.986407 2.177654 -16.019000 0 CHG=-1
M  V30 9 C 8.512579 4.473547 -18.248194 0 CFG=1
M  V30 10 C 9.747346 6.446913 -8.281860 0
M  V30 11 N 8.575412 5.989927 -9.066822 0 CHG=1
M  V30 12 S 7.247080 6.670729 -14.068961 0
M  V30 13 C 8.873795 5.498096 -10.427563 0
M  V30 14 C 8.259641 5.048806 -19.624298 0
M  V30 15 C 11.477446 8.297481 -7.984389 0
M  V30 16 C 10.568300 7.069838 -5.951652 0
M  V30 17 C 8.032443 6.249888 -11.464514 0
M  V30 18 O 8.820072 5.412547 -17.240545 0
M  V30 19 O 6.974864 2.747690 -14.155890 0
M  V30 20 F 12.174522 8.790194 -5.798158 0
M  V30 21 F 10.175470 9.339494 -6.341972 0
M  V30 22 C 8.272900 5.752307 -12.889678 0
M  V30 23 C 5.841408 6.482087 -17.214454 0
M  V30 24 C 7.514672 3.040372 -15.246146 0
M  V30 25 H 10.604444 7.689959 -9.862021 0
M  V30 26 H 9.494534 8.533134 -8.810992 0
M  V30 27 H 8.570546 7.317883 -6.692162 0
M  V30 28 H 8.993873 5.650979 -6.406322 0
M  V30 29 H 5.634155 4.858591 -14.664379 0
M  V30 30 H 9.108796 3.563165 -18.221965 0
M  V30 31 H 10.526105 5.685406 -8.358316 0
M  V30 32 H 7.911154 6.770800 -9.172819 0
M  V30 33 H 8.669432 4.427758 -10.469929 0
M  V30 34 H 9.929907 5.614380 -10.662986 0
M  V30 35 H 7.716705 4.329268 -20.237624 0
M  V30 36 H 7.671408 5.962538 -19.555893 0
M  V30 37 H 9.205908 5.289093 -20.109913 0
M  V30 38 H 12.326980 7.621959 -8.100249 0
M  V30 39 H 11.804170 9.268162 -8.358106 0
M  V30 40 H 11.355537 6.314199 -5.961339 0
M  V30 41 H 10.262870 7.181540 -4.910734 0
M  V30 42 H 8.245988 7.319257 -11.409221 0
M  V30 43 H 6.973834 6.138746 -11.222772 0
M  V30 44 H 8.039303 4.691132 -12.933282 0
M  V30 45 H 9.320096 5.856539 -13.178373 0
M  V30 46 H 5.943607 6.603590 -18.282026 0
M  V30 47 H 5.118274 7.098878 -16.702044 0
M  V30 48 H 8.094741 5.260315 -8.564802 0
M  V30 END ATOM
M  V30 BEGIN BOND
M  V30 1 1 3 1
M  V30 2 1 5 3
M  V30 3 1 6 1
M  V30 4 1 6 5
M  V30 5 1 9 3
M  V30 6 1 10 2
M  V30 7 1 10 4
M  V30 8 1 11 10
M  V30 9 1 12 6
M  V30 10 1 13 11
M  V30 11 1 14 9
M  V30 12 1 15 2
M  V30 13 1 15 7
M  V30 14 1 16 4
M  V30 15 1 16 7
M  V30 16 1 17 13
M  V30 17 1 3 18 CFG=3
M  V30 18 1 18 9
M  V30 19 1 20 7
M  V30 20 1 21 7
M  V30 21 1 22 12
M  V30 22 1 22 17
M  V30 23 2 23 1
M  V30 24 1 24 5
M  V30 25 1 24 8
M  V30 26 2 24 19
M  V30 27 1 25 2
M  V30 28 1 26 2
M  V30 29 1 27 4
M  V30 30 1 28 4
M  V30 31 1 6 29 CFG=1
M  V30 32 1 9 30 CFG=3
M  V30 33 1 31 10
M  V30 34 1 32 11
M  V30 35 1 33 13
M  V30 36 1 34 13
M  V30 37 1 35 14
M  V30 38 1 36 14
M  V30 39 1 37 14
M  V30 40 1 38 15
M  V30 41 1 39 15
M  V30 42 1 40 16
M  V30 43 1 41 16
M  V30 44 1 42 17
M  V30 45 1 43 17
M  V30 46 1 44 22
M  V30 47 1 45 22
M  V30 48 1 46 23
M  V30 49 1 47 23
M  V30 50 1 48 11
M  V30 END BOND
M  V30 END CTAB
M  END
>  <i_epik_Tot_Q>  (1) 
0

>  <i_epik_Tot_abs_Q>  (1) 
2

>  <i_i_glide_confnum>  (1) 
325

>  <i_i_glide_lignum>  (1) 
56

>  <i_i_glide_posenum>  (1) 
233

>  <i_i_glide_rotatable_bonds>  (1) 
7

>  <i_lp_mmshare_version>  (1) 
72125

>  <i_m_source_file_index>  (1) 
34

>  <i_f3d_flags>  (1) 
0

>  <num_sample>  (1) 
100

>  <b_lp_Chiralities_Consistent>  (1) 
1

>  <r_epik_Charging_Adjusted_Penalty>  (1) 
0.0028136040477262391

>  <r_epik_Ionization_Penalty>  (1) 
0.0028136042679479389

>  <r_epik_Ionization_Penalty_Charging>  (1) 
0.0028136040477262391

>  <r_epik_Ionization_Penalty_Neutral>  (1) 
2.2022169967552159e-10

>  <r_epik_State_Penalty>  (1) 
-0

>  <r_glide_ring_energy>  (1) 
0

>  <r_i_docking_score>  (1) 
-6.4067065346884258

>  <r_i_glide_ecoul>  (1) 
-6.844127547107715

>  <r_i_glide_eff_state_penalty>  (1) 
-0

>  <r_i_glide_einternal>  (1) 
6.7447134260489108

>  <r_i_glide_emodel>  (1) 
-43.539421738617023

>  <r_i_glide_emodel_strain>  (1) 
0.53916891975325143

>  <r_i_glide_energy>  (1) 
-30.721134433347238

>  <r_i_glide_erotb>  (1) 
0.51160899165852303

>  <r_i_glide_esite>  (1) 
-0.086588107220517685

>  <r_i_glide_evdw>  (1) 
-23.877006886239524

>  <r_i_glide_gscore>  (1) 
-6.4067065346884258

>  <r_i_glide_gscore_strain>  (1) 
0

>  <r_i_glide_hbond>  (1) 
-0.16684908467810317

>  <r_i_glide_ligand_efficiency>  (1) 
-0.26694610561201776

>  <r_i_glide_ligand_efficiency_ln>  (1) 
-1.5334188583575239

>  <r_i_glide_ligand_efficiency_sa>  (1) 
-0.77000581222833731

>  <r_i_glide_lipo>  (1) 
-1.4440990592191494

>  <r_i_glide_metal>  (1) 
-0

>  <r_i_glide_rewards>  (1) 
-3.0003097988510445

>  <r_lp_Energy>  (1) 
17.488744999999998

>  <r_lp_tautomer_probability>  (1) 
1

>  <s_epik_Chemistry_Notes>  (1) 
This compound contains an acetal/aminal-like group ( X-CH(R)-Y where X, Y are N, S, or O) that may be acid/base labile, releasing an aldehyde.

>  <s_epik_cmdline>  (1) 
J2VwaWtfcHl0aG9uJywgJy1waHQnLCAnMS4wJywgJy1waCcsICc3LjQnLCAnLXRuJywgJzgnLCAnLW1hJywgJzUwMCcsICctaW1hZScsICc8aW5maWxlLm1hZT4nLCAnLW9tYWUnLCAnPG91dGZpbGUubWFlPic=

>  <s_epik_input>  (1) 
W0NIM11bQ0BASF0oTzEpQzEyQyg9W0NIMl0pW0NAQEhdKE4yQyg9TylbT0hdKVNbQ0gyXVtDSDJdW0NIMl1bTkhdW0NIXShbQ0gyXVtDSDJdMylbQ0gyXVtDSDJdQzMoRilG

>  <s_glide_docking_method>  (1) 
confgen

>  <s_i_glide_gridfile>  (1) 
gpcr_drd2_6luq_protein_autoprepared_prepared

>  <s_lp_Force_Field>  (1) 
S-OPLS

>  <s_lp_Variant>  (1) 
DiffSBDD_33-1

>  <s_m_source_file>  (1) 
generated_generic_title2_ligand_DiffSBDD_2026-06-23_prepared.sdf

>  <GenAI_Model>  (1) 
DiffSBDD

>  <Protein>  (1) 
generic_title2

$$$$
DiffSBDD_11
     RDKit          3D

  0  0  0  0  0  0  0  0  0  0999 V3000
M  V30 BEGIN CTAB
M  V30 COUNTS 44 44 0 0 1
M  V30 BEGIN ATOM
M  V30 1 C 8.063967 5.732973 -11.734657 0 CFG=1
M  V30 2 C 11.301606 6.244555 -4.921587 0
M  V30 3 C 9.537639 6.180589 -11.681455 0
M  V30 4 C 10.427945 8.257050 -8.115125 0
M  V30 5 C 11.039529 6.429425 -1.797697 0
M  V30 6 C 11.165970 7.857625 -6.809327 0 CFG=1
M  V30 7 C 11.775411 8.584782 -4.400725 0
M  V30 8 C 10.416772 7.153447 -9.189498 0
M  V30 9 C 11.264860 9.012413 -5.770695 0 CFG=1
M  V30 10 C 7.909109 4.422785 -12.518589 0
M  V30 11 N 7.490715 5.590227 -10.385025 0 CHG=1
M  V30 12 N 11.775380 7.335828 -4.030615 0 CHG=1
M  V30 13 C 12.203822 6.927658 -2.671627 0
M  V30 14 C 12.144853 10.167643 -6.249830 0
M  V30 15 C 10.479021 6.678485 -6.128486 0
M  V30 16 S 9.775411 7.742101 -10.782445 0
M  V30 17 H 7.483185 6.506515 -12.240945 0
M  V30 18 H 12.175412 5.676731 -5.233754 0
M  V30 19 H 10.683174 5.590222 -4.322206 0
M  V30 20 H 10.167576 5.405317 -11.247849 0
M  V30 21 H 9.902089 6.330732 -12.698744 0
M  V30 22 H 9.402867 8.558121 -7.891112 0
M  V30 23 H 10.910910 9.125919 -8.558789 0
M  V30 24 H 11.400236 5.638514 -1.147111 0
M  V30 25 H 10.215936 5.990578 -2.357276 0
M  V30 26 H 10.619131 7.227732 -1.185056 0
M  V30 27 H 12.175392 7.549986 -7.087342 0
M  V30 28 H 12.142679 9.317711 -3.690124 0
M  V30 29 H 11.430188 6.790224 -9.351639 0
M  V30 30 H 9.809348 6.308719 -8.868865 0
M  V30 31 H 8.282610 4.533827 -13.537486 0
M  V30 32 H 6.862860 4.122471 -12.587306 0
M  V30 33 H 8.462780 3.605728 -12.052891 0
M  V30 34 H 8.085978 5.035926 -9.790431 0
M  V30 35 H 6.572936 5.173083 -10.432343 0
M  V30 36 H 12.938417 6.131662 -2.785065 0
M  V30 37 H 12.718400 7.760688 -2.188913 0
M  V30 38 H 12.108086 11.002394 -5.559965 0
M  V30 39 H 11.775410 10.568260 -7.185031 0
M  V30 40 H 13.186436 9.870058 -6.385002 0
M  V30 41 H 9.469056 6.954193 -5.821141 0
M  V30 42 H 10.379369 5.824184 -6.795097 0
M  V30 43 H 7.375403 6.536436 -9.980441 0
M  V30 44 H 10.262464 9.411254 -5.612943 0
M  V30 END ATOM
M  V30 BEGIN BOND
M  V30 1 1 3 1
M  V30 2 1 6 4
M  V30 3 1 8 4
M  V30 4 1 9 6
M  V30 5 1 9 7
M  V30 6 1 10 1
M  V30 7 1 11 1
M  V30 8 1 12 2
M  V30 9 2 12 7
M  V30 10 1 13 5
M  V30 11 1 13 12
M  V30 12 1 14 9
M  V30 13 1 15 2
M  V30 14 1 15 6
M  V30 15 1 16 3
M  V30 16 1 16 8
M  V30 17 1 1 17 CFG=3
M  V30 18 1 18 2
M  V30 19 1 19 2
M  V30 20 1 20 3
M  V30 21 1 21 3
M  V30 22 1 22 4
M  V30 23 1 23 4
M  V30 24 1 24 5
M  V30 25 1 25 5
M  V30 26 1 26 5
M  V30 27 1 6 27 CFG=3
M  V30 28 1 28 7
M  V30 29 1 29 8
M  V30 30 1 30 8
M  V30 31 1 31 10
M  V30 32 1 32 10
M  V30 33 1 33 10
M  V30 34 1 34 11
M  V30 35 1 35 11
M  V30 36 1 36 13
M  V30 37 1 37 13
M  V30 38 1 38 14
M  V30 39 1 39 14
M  V30 40 1 40 14
M  V30 41 1 41 15
M  V30 42 1 42 15
M  V30 43 1 43 11
M  V30 44 1 9 44 CFG=1
M  V30 END BOND
M  V30 END CTAB
M  END
>  <i_epik_Tot_Q>  (1) 
2

>  <i_epik_Tot_abs_Q>  (1) 
2

>  <i_i_glide_confnum>  (1) 
12

>  <i_i_glide_lignum>  (1) 
21

>  <i_i_glide_posenum>  (1) 
372

>  <i_i_glide_rotatable_bonds>  (1) 
6

>  <i_lp_mmshare_version>  (1) 
72125

>  <i_m_source_file_index>  (1) 
12

>  <i_f3d_flags>  (1) 
0

>  <num_sample>  (1) 
100

>  <b_lp_Chiralities_Consistent>  (1) 
1

>  <r_epik_Charging_Adjusted_Penalty>  (1) 
0.13380573077515515

>  <r_epik_Ionization_Penalty>  (1) 
0.13380575400753034

>  <r_epik_Ionization_Penalty_Charging>  (1) 
0.0076430572427279801

>  <r_epik_Ionization_Penalty_Neutral>  (1) 
0.12616269676480235

>  <r_epik_State_Penalty>  (1) 
0.12616267353242716

>  <r_glide_ring_energy>  (1) 
0

>  <r_i_docking_score>  (1) 
-6.4032370631202626

>  <r_i_glide_ecoul>  (1) 
-9.207302289345801

>  <r_i_glide_eff_state_penalty>  (1) 
0.12616267353242716

>  <r_i_glide_einternal>  (1) 
2.9649156317872802

>  <r_i_glide_emodel>  (1) 
-47.032407870274525

>  <r_i_glide_emodel_strain>  (1) 
0.90540945724887578

>  <r_i_glide_energy>  (1) 
-32.523496229570064

>  <r_i_glide_erotb>  (1) 
1.1639209444696645

>  <r_i_glide_esite>  (1) 
-0.10000000000000001

>  <r_i_glide_evdw>  (1) 
-23.316193940224263

>  <r_i_glide_gscore>  (1) 
-6.5293997366526897

>  <r_i_glide_gscore_strain>  (1) 
0

>  <r_i_glide_hbond>  (1) 
-0.17901511314328472

>  <r_i_glide_ligand_efficiency>  (1) 
-0.40020231644501641

>  <r_i_glide_ligand_efficiency_ln>  (1) 
-1.6973058911438057

>  <r_i_glide_ligand_efficiency_sa>  (1) 
-1.0084466454115308

>  <r_i_glide_lipo>  (1) 
-1.9142951474658452

>  <r_i_glide_metal>  (1) 
-0

>  <r_i_glide_rewards>  (1) 
-2.9531053801001415

>  <r_lp_Energy>  (1) 
22.734718999999998

>  <s_epik_Chemistry_Notes>  (1) 
This compound has an imine and may undergo hydrolysis.

>  <s_epik_cmdline>  (1) 
J2VwaWtfcHl0aG9uJywgJy1waHQnLCAnMS4wJywgJy1waCcsICc3LjQnLCAnLXRuJywgJzgnLCAnLW1hJywgJzUwMCcsICctaW1hZScsICc8aW5maWxlLm1hZT4nLCAnLW9tYWUnLCAnPG91dGZpbGUubWFlPic=

>  <s_epik_input>  (1) 
W0NIM11bQ0BASF0oW05IMl0pW0NIMl1TW0NIMl1bQ0gyXVtDQEhdMUMoW0NIM10pPVtDSF1OKFtDSDJdW0NIMl0xKVtDSDJdW0NIM10=

>  <s_glide_docking_method>  (1) 
confgen

>  <s_i_glide_gridfile>  (1) 
gpcr_drd2_6luq_protein_autoprepared_prepared

>  <s_lp_Force_Field>  (1) 
S-OPLS

>  <s_lp_Variant>  (1) 
DiffSBDD_11-1

>  <s_m_source_file>  (1) 
generated_generic_title2_ligand_DiffSBDD_2026-06-23_prepared.sdf

>  <GenAI_Model>  (1) 
DiffSBDD

>  <Protein>  (1) 
generic_title2

$$$$
DiffSBDD_72
     RDKit          3D

  0  0  0  0  0  0  0  0  0  0999 V3000
M  V30 BEGIN CTAB
M  V30 COUNTS 47 49 0 0 1
M  V30 BEGIN ATOM
M  V30 1 C 12.207004 8.204154 -3.098360 0
M  V30 2 C 12.091645 8.552118 -7.616180 0
M  V30 3 C 9.590137 8.298795 -7.030197 0
M  V30 4 C 11.366158 8.117566 -5.226305 0
M  V30 5 C 12.794985 8.800343 -1.878860 0
M  V30 6 C 11.200706 6.801403 -4.842035 0
M  V30 7 C 6.214116 5.022475 -12.655447 0
M  V30 8 C 6.441351 5.934427 -13.846542 0
M  V30 9 C 10.988449 8.744958 -6.552535 0 CFG=1
M  V30 10 N 11.955323 8.890844 -4.214136 0
M  V30 11 C 9.149668 5.795120 -11.466821 0
M  V30 12 C 9.674413 7.090961 -9.344248 0 CFG=2
M  V30 13 C 9.545583 6.963076 -7.798257 0
M  V30 14 C 7.869428 6.517397 -11.976125 0 CFG=1
M  V30 15 C 7.779285 6.568060 -13.512483 0
M  V30 16 S 11.775349 6.527097 -3.219380 0
M  V30 17 O 6.687660 5.814791 -11.582589 0
M  V30 18 O 8.199388 5.190142 -9.415114 0
M  V30 19 N 9.375380 5.802127 -10.014483 0
M  V30 20 C 11.085266 7.576124 -9.781842 0
M  V30 21 C 11.661120 8.817161 -9.078062 0
M  V30 22 H 12.482765 7.536072 -7.559433 0
M  V30 23 H 12.936832 9.188678 -7.355466 0
M  V30 24 H 8.923289 8.248824 -6.167827 0
M  V30 25 H 9.148561 9.068473 -7.664268 0
M  V30 26 H 13.776802 9.190085 -2.116591 0
M  V30 27 H 12.163153 9.606071 -1.505576 0
M  V30 28 H 12.908953 8.047902 -1.101427 0
M  V30 29 H 10.776488 5.990517 -5.405889 0
M  V30 30 H 6.809191 4.111268 -12.735859 0
M  V30 31 H 5.168235 4.746127 -12.519791 0
M  V30 32 H 6.440147 5.402908 -14.798595 0
M  V30 33 H 5.665410 6.699539 -13.879984 0
M  V30 34 H 10.904368 9.820609 -6.385586 0
M  V30 35 H 10.026301 6.213487 -11.959479 0
M  V30 36 H 9.114661 4.753078 -11.787122 0
M  V30 37 H 8.975379 7.845040 -9.685045 0
M  V30 38 H 8.580265 6.540688 -7.522005 0
M  V30 39 H 10.287914 6.254126 -7.440314 0
M  V30 40 H 7.822617 7.533268 -11.585806 0
M  V30 41 H 7.834916 7.588124 -13.893338 0
M  V30 42 H 8.584584 5.989639 -13.966743 0
M  V30 43 H 7.530494 5.849663 -9.584824 0
M  V30 44 H 11.814495 6.790396 -9.639610 0
M  V30 45 H 11.071842 7.783482 -10.851021 0
M  V30 46 H 12.553505 9.116917 -9.629450 0
M  V30 47 H 10.975366 9.653197 -9.179173 0
M  V30 END ATOM
M  V30 BEGIN BOND
M  V30 1 1 5 1
M  V30 2 2 6 4
M  V30 3 1 8 7
M  V30 4 1 9 2
M  V30 5 1 9 3
M  V30 6 1 9 4
M  V30 7 2 10 1
M  V30 8 1 10 4
M  V30 9 1 13 3
M  V30 10 1 13 12
M  V30 11 1 14 11
M  V30 12 1 15 8
M  V30 13 1 15 14
M  V30 14 1 16 1
M  V30 15 1 16 6
M  V30 16 1 17 7
M  V30 17 1 17 14
M  V30 18 1 19 11
M  V30 19 1 19 12
M  V30 20 1 19 18
M  V30 21 1 20 12
M  V30 22 1 21 2
M  V30 23 1 21 20
M  V30 24 1 22 2
M  V30 25 1 23 2
M  V30 26 1 24 3
M  V30 27 1 25 3
M  V30 28 1 26 5
M  V30 29 1 27 5
M  V30 30 1 28 5
M  V30 31 1 29 6
M  V30 32 1 30 7
M  V30 33 1 31 7
M  V30 34 1 32 8
M  V30 35 1 33 8
M  V30 36 1 9 34 CFG=1
M  V30 37 1 35 11
M  V30 38 1 36 11
M  V30 39 1 12 37 CFG=3
M  V30 40 1 38 13
M  V30 41 1 39 13
M  V30 42 1 14 40 CFG=1
M  V30 43 1 41 15
M  V30 44 1 42 15
M  V30 45 1 43 18
M  V30 46 1 44 20
M  V30 47 1 45 20
M  V30 48 1 46 21
M  V30 49 1 47 21
M  V30 END BOND
M  V30 END CTAB
M  END
>  <i_epik_Tot_Q>  (1) 
0

>  <i_epik_Tot_abs_Q>  (1) 
0

>  <i_i_glide_confnum>  (1) 
408

>  <i_i_glide_lignum>  (1) 
117

>  <i_i_glide_posenum>  (1) 
156

>  <i_i_glide_rotatable_bonds>  (1) 
5

>  <i_lp_mmshare_version>  (1) 
72125

>  <i_m_source_file_index>  (1) 
73

>  <i_f3d_flags>  (1) 
0

>  <num_sample>  (1) 
100

>  <b_lp_Chiralities_Consistent>  (1) 
1

>  <r_epik_Charging_Adjusted_Penalty>  (1) 
0.31702420014140181

>  <r_epik_Ionization_Penalty>  (1) 
0.0051686073058934195

>  <r_epik_Ionization_Penalty_Charging>  (1) 
0

>  <r_epik_Ionization_Penalty_Neutral>  (1) 
0.0051686073058934195

>  <r_epik_State_Penalty>  (1) 
0.31702420014140181

>  <r_glide_ring_energy>  (1) 
0.87810811564376989

>  <r_i_docking_score>  (1) 
-6.3989616343739986

>  <r_i_glide_ecoul>  (1) 
-2.9763606330419252

>  <r_i_glide_eff_state_penalty>  (1) 
0.31702420014140181

>  <r_i_glide_einternal>  (1) 
6.2006805148187132

>  <r_i_glide_emodel>  (1) 
-51.664055562880613

>  <r_i_glide_emodel_strain>  (1) 
0.49913055928210071

>  <r_i_glide_energy>  (1) 
-38.48561085342282

>  <r_i_glide_erotb>  (1) 
0.76903323708162985

>  <r_i_glide_esite>  (1) 
-0.15657071452782542

>  <r_i_glide_evdw>  (1) 
-35.509250220380892

>  <r_i_glide_gscore>  (1) 
-6.7159858345154007

>  <r_i_glide_gscore_strain>  (1) 
0

>  <r_i_glide_hbond>  (1) 
-0.13585836490754102

>  <r_i_glide_ligand_efficiency>  (1) 
-0.3047124587797142

>  <r_i_glide_ligand_efficiency_ln>  (1) 
-1.5821303337794907

>  <r_i_glide_ligand_efficiency_sa>  (1) 
-0.84067856937188934

>  <r_i_glide_lipo>  (1) 
-2.7783676134590576

>  <r_i_glide_metal>  (1) 
-0

>  <r_i_glide_rewards>  (1) 
-2.192305772727273

>  <r_lp_Energy>  (1) 
12.292861

>  <s_epik_Chemistry_Notes>  (1) 
This compound has a N-S or N-O group and may undergo hydrolysis at high or low pH.

>  <s_epik_cmdline>  (1) 
J2VwaWtfcHl0aG9uJywgJy1waHQnLCAnMS4wJywgJy1waCcsICc3LjQnLCAnLXRuJywgJzgnLCAnLW1hJywgJzUwMCcsICctaW1hZScsICc8aW5maWxlLm1hZT4nLCAnLW9tYWUnLCAnPG91dGZpbGUubWFlPic=

>  <s_epik_input>  (1) 
W0NIM11jMW5jKFtjSF1zMSlbQ0BIXTJbQ0gyXVtDSDJdW0NIMl1bQ0BIXShbQ0gyXVtDSDJdMilOKFtPSF0pW0NIMl1bQ0BIXTNbQ0gyXVtDSDJdW0NIMl1PMw==

>  <s_glide_docking_method>  (1) 
confgen

>  <s_i_glide_gridfile>  (1) 
gpcr_drd2_6luq_protein_autoprepared_prepared

>  <s_lp_Force_Field>  (1) 
S-OPLS

>  <s_lp_Variant>  (1) 
DiffSBDD_72-1

>  <s_m_source_file>  (1) 
generated_generic_title2_ligand_DiffSBDD_2026-06-23_prepared.sdf

>  <GenAI_Model>  (1) 
DiffSBDD

>  <Protein>  (1) 
generic_title2

$$$$
DiffSBDD_49
     RDKit          3D

  0  0  0  0  0  0  0  0  0  0999 V3000
M  V30 BEGIN CTAB
M  V30 COUNTS 60 61 0 0 1
M  V30 BEGIN ATOM
M  V30 1 C 7.901450 5.946198 -18.379162 0
M  V30 2 C 6.576417 6.260395 -17.997150 0
M  V30 3 C 5.520806 6.072975 -18.915886 0
M  V30 4 C 11.461674 7.892144 -4.644960 0
M  V30 5 N 8.544776 3.996933 -11.976038 0
M  V30 6 C 9.775392 6.627251 -9.454029 0
M  V30 7 O 10.133034 7.522584 -10.222151 0
M  V30 8 F 4.252407 6.390154 -18.563691 0
M  V30 9 C 7.274679 4.636746 -15.566990 0
M  V30 10 C 6.895173 6.680685 -14.165977 0
M  V30 11 O 12.162315 7.941468 -7.793042 0
M  V30 12 C 5.787137 5.556763 -20.202699 0
M  V30 13 C 7.110517 5.238302 -20.573937 0
M  V30 14 C 6.285117 6.812787 -16.599616 0
M  V30 15 C 11.827105 7.259488 -3.292669 0
M  V30 16 C 8.870557 5.501691 -9.969821 0
M  V30 17 C 9.502188 4.740150 -11.152128 0
M  V30 18 S 10.801222 7.648630 -7.315830 0
M  V30 19 C 4.651450 5.340660 -21.184019 0
M  V30 20 O 9.269312 2.811325 -12.385124 0
M  V30 21 C 6.266938 5.727510 -12.021808 0
M  V30 22 N 10.067833 6.474824 -8.142033 0 CHG=-1
M  V30 23 N 5.375391 5.499926 -11.324076 0
M  V30 24 C 8.215271 4.719073 -13.217354 0 CFG=2
M  V30 25 F 4.438529 6.432137 -21.919083 0
M  V30 26 C 7.408704 6.004505 -12.908345 0 CFG=1
M  V30 27 O 9.920007 8.790174 -7.038417 0
M  V30 28 C 6.828690 6.082061 -15.367358 0
M  V30 29 C 8.164511 5.435579 -19.664076 0
M  V30 30 F 7.368456 4.741691 -21.807141 0
M  V30 31 C 12.348742 8.286814 -2.280015 0
M  V30 32 C 7.423583 3.868689 -14.239898 0
M  V30 33 C 11.030101 6.848107 -5.685803 0
M  V30 34 H 8.715232 6.092998 -17.684280 0
M  V30 35 H 12.307363 8.462273 -5.020410 0
M  V30 36 H 10.683758 8.644614 -4.535842 0
M  V30 37 H 8.243970 4.635634 -16.065634 0
M  V30 38 H 6.575415 4.113375 -16.213680 0
M  V30 39 H 6.564097 7.700216 -14.059817 0
M  V30 40 H 5.204017 6.829304 -16.455976 0
M  V30 41 H 6.575473 7.862931 -16.562695 0
M  V30 42 H 10.975362 6.729221 -2.874316 0
M  V30 43 H 12.575315 6.489859 -3.450311 0
M  V30 44 H 7.942811 5.989799 -10.245287 0
M  V30 45 H 8.607039 4.794743 -9.180480 0
M  V30 46 H 10.175296 4.026133 -10.688444 0
M  V30 47 H 10.128728 5.384548 -11.772341 0
M  V30 48 H 4.868885 4.519066 -21.866721 0
M  V30 49 H 3.728700 5.104071 -20.658513 0
M  V30 50 H 9.124970 2.198754 -11.669125 0
M  V30 51 H 9.155263 5.002109 -13.696474 0
M  V30 52 H 8.047954 6.723013 -12.395808 0
M  V30 53 H 9.176638 5.192078 -19.952676 0
M  V30 54 H 12.681186 7.795936 -1.366499 0
M  V30 55 H 13.195034 8.843993 -2.683268 0
M  V30 56 H 11.574191 9.003293 -2.009626 0
M  V30 57 H 7.917745 2.921352 -14.454100 0
M  V30 58 H 6.438655 3.619018 -13.840162 0
M  V30 59 H 10.080031 6.392907 -5.406265 0
M  V30 60 H 11.764381 6.054136 -5.807057 0
M  V30 END ATOM
M  V30 BEGIN BOND
M  V30 1 1 2 1
M  V30 2 2 3 2
M  V30 3 2 7 6
M  V30 4 1 8 3
M  V30 5 1 12 3
M  V30 6 2 13 12
M  V30 7 1 14 2
M  V30 8 1 15 4
M  V30 9 1 16 6
M  V30 10 1 17 5
M  V30 11 1 17 16
M  V30 12 2 18 11
M  V30 13 1 19 12
M  V30 14 1 20 5
M  V30 15 1 22 6
M  V30 16 1 22 18
M  V30 17 3 23 21
M  V30 18 1 24 5
M  V30 19 1 25 19
M  V30 20 1 26 10
M  V30 21 1 26 21
M  V30 22 1 26 24
M  V30 23 2 27 18
M  V30 24 1 28 9
M  V30 25 2 28 10
M  V30 26 1 28 14
M  V30 27 2 29 1
M  V30 28 1 29 13
M  V30 29 1 30 13
M  V30 30 1 31 15
M  V30 31 1 32 9
M  V30 32 1 32 24
M  V30 33 1 33 4
M  V30 34 1 33 18
M  V30 35 1 34 1
M  V30 36 1 35 4
M  V30 37 1 36 4
M  V30 38 1 37 9
M  V30 39 1 38 9
M  V30 40 1 39 10
M  V30 41 1 40 14
M  V30 42 1 41 14
M  V30 43 1 42 15
M  V30 44 1 43 15
M  V30 45 1 44 16
M  V30 46 1 45 16
M  V30 47 1 46 17
M  V30 48 1 47 17
M  V30 49 1 48 19
M  V30 50 1 49 19
M  V30 51 1 50 20
M  V30 52 1 24 51 CFG=3
M  V30 53 1 26 52 CFG=1
M  V30 54 1 53 29
M  V30 55 1 54 31
M  V30 56 1 55 31
M  V30 57 1 56 31
M  V30 58 1 57 32
M  V30 59 1 58 32
M  V30 60 1 59 33
M  V30 61 1 60 33
M  V30 END BOND
M  V30 END CTAB
M  END
>  <i_epik_Tot_Q>  (1) 
-1

>  <i_epik_Tot_abs_Q>  (1) 
1

>  <i_i_glide_confnum>  (1) 
2934

>  <i_i_glide_lignum>  (1) 
79

>  <i_i_glide_posenum>  (1) 
342

>  <i_i_glide_rotatable_bonds>  (1) 
13

>  <i_lp_mmshare_version>  (1) 
72125

>  <i_m_source_file_index>  (1) 
50

>  <i_f3d_flags>  (1) 
0

>  <num_sample>  (1) 
100

>  <b_lp_Chiralities_Consistent>  (1) 
1

>  <r_epik_Charging_Adjusted_Penalty>  (1) 
0.026401540153883577

>  <r_epik_Ionization_Penalty>  (1) 
0.013342793293924158

>  <r_epik_Ionization_Penalty_Charging>  (1) 
0.013200770076941797

>  <r_epik_Ionization_Penalty_Neutral>  (1) 
0.00014202321698236043

>  <r_epik_State_Penalty>  (1) 
0.01320077007694178

>  <r_glide_ring_energy>  (1) 
0

>  <r_i_docking_score>  (1) 
-6.3830637232121283

>  <r_i_glide_ecoul>  (1) 
-6.1149285134167446

>  <r_i_glide_eff_state_penalty>  (1) 
0.01320077007694178

>  <r_i_glide_einternal>  (1) 
17.258112077910717

>  <r_i_glide_emodel>  (1) 
-51.123331573607118

>  <r_i_glide_emodel_strain>  (1) 
0.44648865370713153

>  <r_i_glide_energy>  (1) 
-44.17360296007184

>  <r_i_glide_erotb>  (1) 
0.85852740142568074

>  <r_i_glide_esite>  (1) 
-0.16036581415690232

>  <r_i_glide_evdw>  (1) 
-38.058674446655097

>  <r_i_glide_gscore>  (1) 
-6.3962644932890704

>  <r_i_glide_gscore_strain>  (1) 
0

>  <r_i_glide_hbond>  (1) 
-0.29985468549054478

>  <r_i_glide_ligand_efficiency>  (1) 
-0.19342617343067056

>  <r_i_glide_ligand_efficiency_ln>  (1) 
-1.4195603223072024

>  <r_i_glide_ligand_efficiency_sa>  (1) 
-0.62042109159860248

>  <r_i_glide_lipo>  (1) 
-2.7671292170529136

>  <r_i_glide_metal>  (1) 
-0

>  <r_i_glide_rewards>  (1) 
-1.2072691786691232

>  <r_lp_Energy>  (1) 
33.979248999999996

>  <s_epik_Chemistry_Notes>  (1) 
This compound has a N-S or N-O group and may undergo hydrolysis at high or low pH.

>  <s_epik_cmdline>  (1) 
J2VwaWtfcHl0aG9uJywgJy1waHQnLCAnMS4wJywgJy1waCcsICc3LjQnLCAnLXRuJywgJzgnLCAnLW1hJywgJzUwMCcsICctaW1hZScsICc8aW5maWxlLm1hZT4nLCAnLW9tYWUnLCAnPG91dGZpbGUubWFlPic=

>  <s_epik_input>  (1) 
RmMxYyhbQ0gyXUYpYyhGKVtjSF1bY0hdYzFbQ0gyXUMoW0NIMl1bQ0gyXTIpPVtDSF1bQ0BASF0oQyNOKVtDQEhdMk4oW09IXSlbQ0gyXVtDSDJdQyg9TylbTkhdUyg9TykoPU8pW0NIMl1bQ0gyXVtDSDJdW0NIM10=

>  <s_glide_docking_method>  (1) 
confgen

>  <s_i_glide_gridfile>  (1) 
gpcr_drd2_6luq_protein_autoprepared_prepared

>  <s_lp_Force_Field>  (1) 
S-OPLS

>  <s_lp_Variant>  (1) 
DiffSBDD_49-1

>  <s_m_source_file>  (1) 
generated_generic_title2_ligand_DiffSBDD_2026-06-23_prepared.sdf

>  <GenAI_Model>  (1) 
DiffSBDD

>  <Protein>  (1) 
generic_title2

$$$$
DiffSBDD_89
     RDKit          3D

  0  0  0  0  0  0  0  0  0  0999 V3000
M  V30 BEGIN CTAB
M  V30 COUNTS 79 82 0 0 1
M  V30 BEGIN ATOM
M  V30 1 C 10.992402 7.526232 -5.450903 0
M  V30 2 O 10.594917 2.609716 -18.327714 0
M  V30 3 C 6.807923 3.535572 -19.036032 0
M  V30 4 C 9.648972 4.573187 -17.355958 0
M  V30 5 C 9.645936 3.121046 -17.735377 0
M  V30 6 C 8.405794 2.312060 -17.361409 0 CFG=2
M  V30 7 F 11.984508 10.913352 -6.384948 0
M  V30 8 C 9.433793 5.270507 -7.985452 0
M  V30 9 C 10.286088 5.857304 -12.284380 0
M  V30 10 C 10.037476 8.688973 -10.385509 0
M  V30 11 F 11.107519 10.284893 -4.541087 0
M  V30 12 F 13.088962 9.590251 -5.101030 0
M  V30 13 C 6.222195 1.204646 -18.269637 0
M  V30 14 C 7.672872 4.219267 -14.007671 0 CFG=2
M  V30 15 C 10.264807 7.557500 -8.164550 0
M  V30 16 N 8.222195 3.851803 -15.351056 0
M  V30 17 C 5.523937 7.572987 -16.493815 0
M  V30 18 C 7.379774 2.187487 -18.550299 0
M  V30 19 O 11.375415 7.472087 -4.146257 0
M  V30 20 C 9.371294 6.427142 -10.104847 0
M  V30 21 C 9.899847 7.537946 -9.521844 0
M  V30 22 C 9.080684 6.532650 -11.577224 0 CFG=1
M  V30 23 C 10.869159 8.697887 -7.578272 0
M  V30 24 C 11.231860 8.677384 -6.212251 0
M  V30 25 C 9.129700 5.270693 -9.356366 0
M  V30 26 C 7.778826 2.711791 -15.983086 0
M  V30 27 O 6.914804 1.990430 -15.489855 0
M  V30 28 C 7.551380 5.759413 -13.635583 0 CFG=1
M  V30 29 C 8.238693 3.235765 -12.946675 0
M  V30 30 C 10.373898 6.421901 -6.026095 0
M  V30 31 C 11.873676 9.890470 -5.558909 0
M  V30 32 C 6.340497 6.442493 -14.337216 0 CFG=2
M  V30 33 F 5.214529 5.886753 -13.910441 0
M  V30 34 O 8.035227 1.586708 -19.656257 0
M  V30 35 C 9.356938 4.665353 -15.867741 0
M  V30 36 C 9.337336 8.111120 -11.683065 0
M  V30 37 C 7.619638 6.142050 -12.106713 0 CFG=1
M  V30 38 C 6.651819 5.343719 -11.187441 0
M  V30 39 C 6.317307 6.411833 -15.878672 0
M  V30 40 C 10.021908 6.418291 -7.386019 0
M  V30 41 H 6.310509 4.071570 -18.229397 0
M  V30 42 H 7.576984 4.189067 -19.444651 0
M  V30 43 H 6.072821 3.388960 -19.827438 0
M  V30 44 H 10.612996 5.022241 -17.595781 0
M  V30 45 H 8.887589 5.105872 -17.923309 0
M  V30 46 H 8.784320 1.305654 -17.175129 0
M  V30 47 H 9.238126 4.396521 -7.409046 0
M  V30 48 H 10.272266 5.896604 -13.369240 0
M  V30 49 H 11.212064 6.361083 -12.002032 0
M  V30 50 H 10.428953 4.822618 -11.985041 0
M  V30 51 H 9.419310 9.471747 -9.936862 0
M  V30 52 H 11.093771 8.942544 -10.479355 0
M  V30 53 H 5.521703 1.590450 -17.532129 0
M  V30 54 H 5.636690 1.006870 -19.168235 0
M  V30 55 H 6.591637 0.245981 -17.904484 0
M  V30 56 H 6.622694 3.929158 -14.044500 0
M  V30 57 H 5.526297 7.516848 -17.582035 0
M  V30 58 H 4.486086 7.569195 -16.162569 0
M  V30 59 H 5.960055 8.534108 -16.219629 0
M  V30 60 H 11.219741 6.628098 -3.748736 0
M  V30 61 H 11.066479 9.572767 -8.173775 0
M  V30 62 H 8.709883 4.393539 -9.819755 0
M  V30 63 H 8.369073 6.331571 -14.036672 0
M  V30 64 H 7.435936 2.607211 -12.557538 0
M  V30 65 H 8.975256 2.542783 -13.342133 0
M  V30 66 H 8.697125 3.706878 -12.089766 0
M  V30 67 H 10.181753 5.590227 -5.420935 0
M  V30 68 H 6.297478 7.488441 -14.028289 0
M  V30 69 H 8.842250 2.048952 -19.833007 0
M  V30 70 H 9.252166 5.726205 -15.696766 0
M  V30 71 H 10.252085 4.394034 -15.308164 0
M  V30 72 H 9.856491 8.389043 -12.595529 0
M  V30 73 H 8.390610 8.648421 -11.745522 0
M  V30 74 H 7.089930 7.089481 -12.048197 0
M  V30 75 H 6.886450 4.292500 -11.069418 0
M  V30 76 H 6.612913 5.752473 -10.181802 0
M  V30 77 H 5.628634 5.392905 -11.557879 0
M  V30 78 H 7.323030 6.445656 -16.279753 0
M  V30 79 H 5.902480 5.466634 -16.222879 0
M  V30 END ATOM
M  V30 BEGIN BOND
M  V30 1 2 5 2
M  V30 2 1 5 4
M  V30 3 1 6 5
M  V30 4 1 16 14
M  V30 5 1 18 3
M  V30 6 1 18 6
M  V30 7 1 18 13
M  V30 8 1 19 1
M  V30 9 1 21 10
M  V30 10 1 21 15
M  V30 11 2 21 20
M  V30 12 1 22 9 CFG=3
M  V30 13 1 22 20
M  V30 14 2 23 15
M  V30 15 2 24 1
M  V30 16 1 24 23
M  V30 17 2 25 8
M  V30 18 1 25 20
M  V30 19 1 26 6
M  V30 20 1 26 16
M  V30 21 2 27 26
M  V30 22 1 28 14
M  V30 23 1 29 14
M  V30 24 1 30 1
M  V30 25 1 31 7
M  V30 26 1 31 11
M  V30 27 1 31 12
M  V30 28 1 31 24
M  V30 29 1 32 28
M  V30 30 1 33 32
M  V30 31 1 34 18
M  V30 32 1 35 4
M  V30 33 1 35 16
M  V30 34 1 36 10
M  V30 35 1 36 22
M  V30 36 1 37 22
M  V30 37 1 37 28
M  V30 38 1 38 37
M  V30 39 1 39 17
M  V30 40 1 39 32
M  V30 41 1 40 8
M  V30 42 1 40 15
M  V30 43 2 40 30
M  V30 44 1 41 3
M  V30 45 1 42 3
M  V30 46 1 43 3
M  V30 47 1 44 4
M  V30 48 1 45 4
M  V30 49 1 6 46 CFG=1
M  V30 50 1 47 8
M  V30 51 1 48 9
M  V30 52 1 49 9
M  V30 53 1 50 9
M  V30 54 1 51 10
M  V30 55 1 52 10
M  V30 56 1 53 13
M  V30 57 1 54 13
M  V30 58 1 55 13
M  V30 59 1 14 56 CFG=3
M  V30 60 1 57 17
M  V30 61 1 58 17
M  V30 62 1 59 17
M  V30 63 1 60 19
M  V30 64 1 61 23
M  V30 65 1 62 25
M  V30 66 1 28 63 CFG=3
M  V30 67 1 64 29
M  V30 68 1 65 29
M  V30 69 1 66 29
M  V30 70 1 67 30
M  V30 71 1 32 68 CFG=3
M  V30 72 1 69 34
M  V30 73 1 70 35
M  V30 74 1 71 35
M  V30 75 1 72 36
M  V30 76 1 73 36
M  V30 77 1 37 74 CFG=3
M  V30 78 1 75 38
M  V30 79 1 76 38
M  V30 80 1 77 38
M  V30 81 1 78 39
M  V30 82 1 79 39
M  V30 END BOND
M  V30 END CTAB
M  END
>  <i_epik_Tot_Q>  (1) 
0

>  <i_epik_Tot_abs_Q>  (1) 
0

>  <i_i_glide_confnum>  (1) 
133

>  <i_i_glide_lignum>  (1) 
165

>  <i_i_glide_posenum>  (1) 
56

>  <i_i_glide_rotatable_bonds>  (1) 
10

>  <i_lp_mmshare_version>  (1) 
72125

>  <i_m_source_file_index>  (1) 
90

>  <i_f3d_flags>  (1) 
0

>  <num_sample>  (1) 
100

>  <b_lp_Chiralities_Consistent>  (1) 
1

>  <r_epik_Charging_Adjusted_Penalty>  (1) 
0

>  <r_epik_Ionization_Penalty>  (1) 
0.063976020685543381

>  <r_epik_Ionization_Penalty_Charging>  (1) 
0

>  <r_epik_Ionization_Penalty_Neutral>  (1) 
0.063976020685543381

>  <r_epik_State_Penalty>  (1) 
-0

>  <r_glide_ring_energy>  (1) 
0

>  <r_i_docking_score>  (1) 
-6.3674685405592166

>  <r_i_glide_ecoul>  (1) 
-1.2443651125401813

>  <r_i_glide_eff_state_penalty>  (1) 
-0

>  <r_i_glide_einternal>  (1) 
25.615300515212752

>  <r_i_glide_emodel>  (1) 
-17.305661588868603

>  <r_i_glide_emodel_strain>  (1) 
3.8564964679240745

>  <r_i_glide_energy>  (1) 
-26.56800199009308

>  <r_i_glide_erotb>  (1) 
0.30496708774431369

>  <r_i_glide_esite>  (1) 
0

>  <r_i_glide_evdw>  (1) 
-25.3236368775529

>  <r_i_glide_gscore>  (1) 
-6.3674685405592166

>  <r_i_glide_gscore_strain>  (1) 
0

>  <r_i_glide_hbond>  (1) 
0

>  <r_i_glide_ligand_efficiency>  (1) 
-0.15918671351398042

>  <r_i_glide_ligand_efficiency_ln>  (1) 
-1.3579936534671451

>  <r_i_glide_ligand_efficiency_sa>  (1) 
-0.5444109022788417

>  <r_i_glide_lipo>  (1) 
-2.9161278274874056

>  <r_i_glide_metal>  (1) 
-0

>  <r_i_glide_rewards>  (1) 
-2.303471190057452

>  <r_lp_Energy>  (1) 
56.555591

>  <r_lp_tautomer_probability>  (1) 
1

>  <s_epik_cmdline>  (1) 
J2VwaWtfcHl0aG9uJywgJy1waHQnLCAnMS4wJywgJy1waCcsICc3LjQnLCAnLXRuJywgJzgnLCAnLW1hJywgJzUwMCcsICctaW1hZScsICc8aW5maWxlLm1hZT4nLCAnLW9tYWUnLCAnPG91dGZpbGUubWFlPic=

>  <s_epik_input>  (1) 
RkMoRikoRiljKFtjSF0xKWMoW09IXSlbY0hdYzJbY0hdW2NIXWMoYzNjMTIpW0NAXShbQ0gzXSkoW0NIMl1bQ0gyXTMpW0NASF0oW0NIM10pW0NASF0oW0NASF0oRilbQ0gyXVtDSDNdKVtDQEhdKFtDSDNdKU4oW0NIMl1bQ0gyXUM0PU8pQyg9TylbQ0BASF00QyhbQ0gzXSkoW0NIM10pW09IXQ==

>  <s_glide_docking_method>  (1) 
confgen

>  <s_i_glide_gridfile>  (1) 
gpcr_drd2_6luq_protein_autoprepared_prepared

>  <s_lp_Force_Field>  (1) 
S-OPLS

>  <s_lp_Variant>  (1) 
DiffSBDD_89-2

>  <s_m_source_file>  (1) 
generated_generic_title2_ligand_DiffSBDD_2026-06-23_prepared.sdf

>  <GenAI_Model>  (1) 
DiffSBDD

>  <Protein>  (1) 
generic_title2

$$$$
DiffSBDD_72
     RDKit          3D

  0  0  0  0  0  0  0  0  0  0999 V3000
M  V30 BEGIN CTAB
M  V30 COUNTS 47 49 0 0 1
M  V30 BEGIN ATOM
M  V30 1 C 11.862997 7.504440 -3.446079 0
M  V30 2 C 12.128156 8.214217 -7.735832 0
M  V30 3 C 9.667157 7.431826 -7.124709 0
M  V30 4 C 11.288820 8.465271 -5.443845 0
M  V30 5 C 12.049465 6.424676 -2.440832 0
M  V30 6 C 11.643983 9.590319 -4.734190 0
M  V30 7 C 6.572947 3.782754 -12.465785 0
M  V30 8 C 7.666652 3.114421 -13.298561 0
M  V30 9 C 10.858304 8.402288 -6.882306 0 CFG=1
M  V30 10 N 11.418302 7.292869 -4.682582 0
M  V30 11 C 9.399748 5.815127 -11.417440 0
M  V30 12 C 9.765850 7.696569 -9.739085 0 CFG=2
M  V30 13 C 9.525000 6.780356 -8.515279 0
M  V30 14 C 8.328860 5.237194 -12.351240 0 CFG=1
M  V30 15 C 8.849478 4.066381 -13.186125 0
M  V30 16 S 12.175658 9.190119 -3.117347 0
M  V30 17 O 7.282488 4.646923 -11.593486 0
M  V30 18 O 8.990549 8.086496 -11.968499 0 CHG=-1
M  V30 19 N 8.976063 7.192612 -10.947861 0 CFG=1 CHG=1
M  V30 20 C 11.258978 7.778014 -10.090893 0
M  V30 21 C 12.036361 8.720273 -9.180362 0
M  V30 22 H 12.928471 8.802187 -7.284039 0
M  V30 23 H 12.472928 7.190067 -7.683042 0
M  V30 24 H 9.710909 6.597713 -6.425686 0
M  V30 25 H 8.740428 7.947372 -6.868245 0
M  V30 26 H 12.567221 5.590093 -2.899526 0
M  V30 27 H 12.633067 6.783292 -1.590678 0
M  V30 28 H 11.081031 6.075174 -2.081897 0
M  V30 29 H 11.650146 10.613669 -5.073266 0
M  V30 30 H 5.964365 3.067418 -11.911625 0
M  V30 31 H 5.910955 4.373580 -13.098909 0
M  V30 32 H 7.934174 2.144280 -12.879244 0
M  V30 33 H 7.353270 2.956734 -14.330068 0
M  V30 34 H 10.474029 9.384522 -7.139045 0
M  V30 35 H 10.353348 5.941235 -11.930455 0
M  V30 36 H 9.538232 5.165044 -10.555658 0
M  V30 37 H 9.349231 8.687234 -9.551452 0
M  V30 38 H 8.524036 6.351952 -8.569072 0
M  V30 39 H 10.203264 5.928634 -8.555351 0
M  V30 40 H 7.911565 5.996958 -13.014761 0
M  V30 41 H 9.209125 4.402397 -14.158648 0
M  V30 42 H 9.677939 3.566896 -12.682540 0
M  V30 43 H 11.383959 8.085071 -11.122393 0
M  V30 44 H 11.708216 6.790228 -10.036993 0
M  V30 45 H 11.609962 9.722093 -9.211797 0
M  V30 46 H 13.047459 8.816498 -9.577899 0
M  V30 47 H 8.008070 7.079268 -10.559496 0
M  V30 END ATOM
M  V30 BEGIN BOND
M  V30 1 1 5 1
M  V30 2 2 6 4
M  V30 3 1 8 7
M  V30 4 1 9 2
M  V30 5 1 9 3
M  V30 6 1 9 4
M  V30 7 2 10 1
M  V30 8 1 10 4
M  V30 9 1 13 3
M  V30 10 1 13 12
M  V30 11 1 14 11
M  V30 12 1 15 8
M  V30 13 1 15 14
M  V30 14 1 16 1
M  V30 15 1 16 6
M  V30 16 1 17 7
M  V30 17 1 17 14
M  V30 18 1 19 11
M  V30 19 1 19 12
M  V30 20 1 19 18
M  V30 21 1 20 12
M  V30 22 1 21 2
M  V30 23 1 21 20
M  V30 24 1 22 2
M  V30 25 1 23 2
M  V30 26 1 24 3
M  V30 27 1 25 3
M  V30 28 1 26 5
M  V30 29 1 27 5
M  V30 30 1 28 5
M  V30 31 1 29 6
M  V30 32 1 30 7
M  V30 33 1 31 7
M  V30 34 1 32 8
M  V30 35 1 33 8
M  V30 36 1 9 34 CFG=3
M  V30 37 1 35 11
M  V30 38 1 36 11
M  V30 39 1 12 37 CFG=1
M  V30 40 1 38 13
M  V30 41 1 39 13
M  V30 42 1 14 40 CFG=3
M  V30 43 1 41 15
M  V30 44 1 42 15
M  V30 45 1 43 20
M  V30 46 1 44 20
M  V30 47 1 45 21
M  V30 48 1 46 21
M  V30 49 1 19 47 CFG=1
M  V30 END BOND
M  V30 END CTAB
M  END
>  <i_epik_Tot_Q>  (1) 
0

>  <i_epik_Tot_abs_Q>  (1) 
2

>  <i_i_glide_confnum>  (1) 
7

>  <i_i_glide_lignum>  (1) 
118

>  <i_i_glide_posenum>  (1) 
27

>  <i_i_glide_rotatable_bonds>  (1) 
4

>  <i_lp_mmshare_version>  (1) 
72125

>  <i_m_source_file_index>  (1) 
73

>  <i_f3d_flags>  (1) 
0

>  <num_sample>  (1) 
100

>  <b_lp_Chiralities_Consistent>  (1) 
1

>  <r_epik_Charging_Adjusted_Penalty>  (1) 
0.52782075658533367

>  <r_epik_Ionization_Penalty>  (1) 
0.0061787587503483845

>  <r_epik_Ionization_Penalty_Charging>  (1) 
0.0058496280333447418

>  <r_epik_Ionization_Penalty_Neutral>  (1) 
0.00032913071700364294

>  <r_epik_State_Penalty>  (1) 
0.52197112855198891

>  <r_glide_ring_energy>  (1) 
0

>  <r_i_docking_score>  (1) 
-6.3564933829009673

>  <r_i_glide_ecoul>  (1) 
-3.5291584526334292

>  <r_i_glide_eff_state_penalty>  (1) 
0.52197112855198891

>  <r_i_glide_einternal>  (1) 
4.4583770644807741

>  <r_i_glide_emodel>  (1) 
-47.371287550375193

>  <r_i_glide_emodel_strain>  (1) 
0.51558378753527023

>  <r_i_glide_energy>  (1) 
-36.368861709612951

>  <r_i_glide_erotb>  (1) 
0.76903323708162985

>  <r_i_glide_esite>  (1) 
-0.10000000000000001

>  <r_i_glide_evdw>  (1) 
-32.839703256979519

>  <r_i_glide_gscore>  (1) 
-6.8784645114529566

>  <r_i_glide_gscore_strain>  (1) 
0

>  <r_i_glide_hbond>  (1) 
-0.12725752423155973

>  <r_i_glide_ligand_efficiency>  (1) 
-0.30269016109052227

>  <r_i_glide_ligand_efficiency_ln>  (1) 
-1.5716301444179661

>  <r_i_glide_ligand_efficiency_sa>  (1) 
-0.83509920338533794

>  <r_i_glide_lipo>  (1) 
-3.0565755208317631

>  <r_i_glide_metal>  (1) 
-0

>  <r_i_glide_rewards>  (1) 
-2.192305772727273

>  <r_lp_Energy>  (1) 
15.897221

>  <s_epik_cmdline>  (1) 
J2VwaWtfcHl0aG9uJywgJy1waHQnLCAnMS4wJywgJy1waCcsICc3LjQnLCAnLXRuJywgJzgnLCAnLW1hJywgJzUwMCcsICctaW1hZScsICc8aW5maWxlLm1hZT4nLCAnLW9tYWUnLCAnPG91dGZpbGUubWFlPic=

>  <s_epik_input>  (1) 
W0NIM11jMW5jKFtjSF1zMSlbQ0BIXTJbQ0gyXVtDSDJdW0NIMl1bQ0BIXShbQ0gyXVtDSDJdMilOKFtPSF0pW0NIMl1bQ0BIXTNbQ0gyXVtDSDJdW0NIMl1PMw==

>  <s_glide_docking_method>  (1) 
confgen

>  <s_i_glide_gridfile>  (1) 
gpcr_drd2_6luq_protein_autoprepared_prepared

>  <s_lp_Force_Field>  (1) 
S-OPLS

>  <s_lp_Variant>  (1) 
DiffSBDD_72-2

>  <s_m_source_file>  (1) 
generated_generic_title2_ligand_DiffSBDD_2026-06-23_prepared.sdf

>  <GenAI_Model>  (1) 
DiffSBDD

>  <Protein>  (1) 
generic_title2

$$$$
DiffSBDD_72
     RDKit          3D

  0  0  0  0  0  0  0  0  0  0999 V3000
M  V30 BEGIN CTAB
M  V30 COUNTS 47 49 0 0 1
M  V30 BEGIN ATOM
M  V30 1 C 12.175410 7.463312 -3.143023 0
M  V30 2 C 11.813738 8.640331 -7.596374 0
M  V30 3 C 10.782484 6.412766 -6.944564 0
M  V30 4 C 11.375410 8.163307 -5.183625 0
M  V30 5 C 12.552592 6.506307 -2.059617 0
M  V30 6 C 11.531048 9.381474 -4.553927 0
M  V30 7 C 6.530356 6.520621 -14.494115 0
M  V30 8 C 6.013221 5.244730 -13.848137 0
M  V30 9 C 10.874883 7.917511 -6.600183 0 CFG=1
M  V30 10 N 11.775403 7.091322 -4.357023 0
M  V30 11 C 8.605152 6.798796 -11.580371 0
M  V30 12 C 9.692654 6.829970 -9.349744 0 CFG=2
M  V30 13 C 9.797127 5.987907 -8.045574 0
M  V30 14 C 7.973474 5.952983 -12.715841 0 CFG=1
M  V30 15 C 6.577148 5.374247 -12.453037 0
M  V30 16 S 12.175411 9.190226 -2.937218 0
M  V30 17 O 7.775410 6.790214 -13.857051 0
M  V30 18 O 7.877853 5.455378 -9.848694 0
M  V30 19 N 9.084109 6.017709 -10.428329 0
M  V30 20 C 11.047555 7.457925 -9.767122 0
M  V30 21 C 11.324831 8.781273 -9.050489 0
M  V30 22 H 12.791356 8.157187 -7.588431 0
M  V30 23 H 11.990770 9.650486 -7.231347 0
M  V30 24 H 11.775416 6.015842 -7.149531 0
M  V30 25 H 10.433716 5.875065 -6.065322 0
M  V30 26 H 11.664992 5.974370 -1.716852 0
M  V30 27 H 13.292487 5.778396 -2.385048 0
M  V30 28 H 12.975405 7.051829 -1.216808 0
M  V30 29 H 11.316340 10.366390 -4.940795 0
M  V30 30 H 5.850760 7.350705 -14.295497 0
M  V30 31 H 6.645954 6.427015 -15.574017 0
M  V30 32 H 4.927026 5.165057 -13.869826 0
M  V30 33 H 6.435414 4.370248 -14.345333 0
M  V30 34 H 9.875428 8.347990 -6.679501 0
M  V30 35 H 7.907872 7.570806 -11.260207 0
M  V30 36 H 9.443191 7.329117 -12.025772 0
M  V30 37 H 9.003800 7.650131 -9.143464 0
M  V30 38 H 8.809160 5.952106 -7.582297 0
M  V30 39 H 10.038058 4.955356 -8.304069 0
M  V30 40 H 8.654357 5.152904 -13.012063 0
M  V30 41 H 6.604769 4.420980 -11.924375 0
M  V30 42 H 5.976012 6.073758 -11.869287 0
M  V30 43 H 7.402286 6.249800 -9.585035 0
M  V30 44 H 11.881397 6.790227 -9.585036 0
M  V30 45 H 11.077912 7.665199 -10.833701 0
M  V30 46 H 12.101260 9.311597 -9.603957 0
M  V30 47 H 10.440991 9.410952 -9.124233 0
M  V30 END ATOM
M  V30 BEGIN BOND
M  V30 1 1 5 1
M  V30 2 2 6 4
M  V30 3 1 8 7
M  V30 4 1 9 2
M  V30 5 1 9 3
M  V30 6 1 9 4
M  V30 7 2 10 1
M  V30 8 1 10 4
M  V30 9 1 13 3
M  V30 10 1 13 12
M  V30 11 1 14 11
M  V30 12 1 15 8
M  V30 13 1 15 14
M  V30 14 1 16 1
M  V30 15 1 16 6
M  V30 16 1 17 7
M  V30 17 1 17 14
M  V30 18 1 19 11
M  V30 19 1 19 12
M  V30 20 1 19 18
M  V30 21 1 20 12
M  V30 22 1 21 2
M  V30 23 1 21 20
M  V30 24 1 22 2
M  V30 25 1 23 2
M  V30 26 1 24 3
M  V30 27 1 25 3
M  V30 28 1 26 5
M  V30 29 1 27 5
M  V30 30 1 28 5
M  V30 31 1 29 6
M  V30 32 1 30 7
M  V30 33 1 31 7
M  V30 34 1 32 8
M  V30 35 1 33 8
M  V30 36 1 9 34 CFG=1
M  V30 37 1 35 11
M  V30 38 1 36 11
M  V30 39 1 12 37 CFG=1
M  V30 40 1 38 13
M  V30 41 1 39 13
M  V30 42 1 14 40 CFG=3
M  V30 43 1 41 15
M  V30 44 1 42 15
M  V30 45 1 43 18
M  V30 46 1 44 20
M  V30 47 1 45 20
M  V30 48 1 46 21
M  V30 49 1 47 21
M  V30 END BOND
M  V30 END CTAB
M  END
>  <i_epik_Tot_Q>  (1) 
0

>  <i_epik_Tot_abs_Q>  (1) 
0

>  <i_i_glide_confnum>  (1) 
358

>  <i_i_glide_lignum>  (1) 
117

>  <i_i_glide_posenum>  (1) 
294

>  <i_i_glide_rotatable_bonds>  (1) 
5

>  <i_lp_mmshare_version>  (1) 
72125

>  <i_m_source_file_index>  (1) 
73

>  <i_f3d_flags>  (1) 
0

>  <num_sample>  (1) 
100

>  <b_lp_Chiralities_Consistent>  (1) 
1

>  <r_epik_Charging_Adjusted_Penalty>  (1) 
0.31702420014140181

>  <r_epik_Ionization_Penalty>  (1) 
0.0051686073058934195

>  <r_epik_Ionization_Penalty_Charging>  (1) 
0

>  <r_epik_Ionization_Penalty_Neutral>  (1) 
0.0051686073058934195

>  <r_epik_State_Penalty>  (1) 
0.31702420014140181

>  <r_glide_ring_energy>  (1) 
0.59985197553096103

>  <r_i_docking_score>  (1) 
-6.3546042352928547

>  <r_i_glide_ecoul>  (1) 
-5.1740989751188238

>  <r_i_glide_eff_state_penalty>  (1) 
0.31702420014140181

>  <r_i_glide_einternal>  (1) 
5.1496090098483052

>  <r_i_glide_emodel>  (1) 
-47.49796430331768

>  <r_i_glide_emodel_strain>  (1) 
4.6391491956376782

>  <r_i_glide_energy>  (1) 
-38.044816394418156

>  <r_i_glide_erotb>  (1) 
0.76903323708162985

>  <r_i_glide_esite>  (1) 
-0.175542296017827

>  <r_i_glide_evdw>  (1) 
-32.870717419299332

>  <r_i_glide_gscore>  (1) 
-6.6716284354342568

>  <r_i_glide_gscore_strain>  (1) 
0.15978729890941956

>  <r_i_glide_hbond>  (1) 
-0.16

>  <r_i_glide_ligand_efficiency>  (1) 
-0.30260020168061214

>  <r_i_glide_ligand_efficiency_ln>  (1) 
-1.5711630564892425

>  <r_i_glide_ligand_efficiency_sa>  (1) 
-0.83485101219444391

>  <r_i_glide_lipo>  (1) 
-2.7677647896814017

>  <r_i_glide_metal>  (1) 
-0

>  <r_i_glide_rewards>  (1) 
-2.0774911684932871

>  <r_lp_Energy>  (1) 
12.292861

>  <s_epik_Chemistry_Notes>  (1) 
This compound has a N-S or N-O group and may undergo hydrolysis at high or low pH.

>  <s_epik_cmdline>  (1) 
J2VwaWtfcHl0aG9uJywgJy1waHQnLCAnMS4wJywgJy1waCcsICc3LjQnLCAnLXRuJywgJzgnLCAnLW1hJywgJzUwMCcsICctaW1hZScsICc8aW5maWxlLm1hZT4nLCAnLW9tYWUnLCAnPG91dGZpbGUubWFlPic=

>  <s_epik_input>  (1) 
W0NIM11jMW5jKFtjSF1zMSlbQ0BIXTJbQ0gyXVtDSDJdW0NIMl1bQ0BIXShbQ0gyXVtDSDJdMilOKFtPSF0pW0NIMl1bQ0BIXTNbQ0gyXVtDSDJdW0NIMl1PMw==

>  <s_glide_docking_method>  (1) 
confgen

>  <s_i_glide_gridfile>  (1) 
gpcr_drd2_6luq_protein_autoprepared_prepared

>  <s_lp_Force_Field>  (1) 
S-OPLS

>  <s_lp_Variant>  (1) 
DiffSBDD_72-1

>  <s_m_source_file>  (1) 
generated_generic_title2_ligand_DiffSBDD_2026-06-23_prepared.sdf

>  <GenAI_Model>  (1) 
DiffSBDD

>  <Protein>  (1) 
generic_title2

$$$$
DiffSBDD_79
     RDKit          3D

  0  0  0  0  0  0  0  0  0  0999 V3000
M  V30 BEGIN CTAB
M  V30 COUNTS 53 56 0 0 1
M  V30 BEGIN ATOM
M  V30 1 C 12.330289 8.424871 -3.984970 0
M  V30 2 C 7.492144 5.943224 -11.722474 0 CFG=2
M  V30 3 C 12.215437 7.717129 -1.635777 0
M  V30 4 C 10.878644 7.925652 -8.904407 0
M  V30 5 C 8.960858 6.314604 -11.583904 0
M  V30 6 C 11.807836 6.974878 -3.906649 0
M  V30 7 C 12.249114 6.478217 -2.528551 0
M  V30 8 N 9.375359 6.984840 -10.575279 0
M  V30 9 C 12.352400 8.867334 -7.203616 0
M  V30 10 C 10.657214 7.431169 -10.312947 0
M  V30 11 C 5.691920 5.092403 -13.392279 0
M  V30 12 C 6.957741 4.666331 -11.139852 0
M  V30 13 C 10.027417 8.390185 -6.657827 0
M  V30 14 C 9.121957 5.168769 -13.913848 0
M  V30 15 C 11.294835 8.867549 -6.276346 0
M  V30 16 C 9.817465 7.917310 -7.964626 0
M  V30 17 C 8.076268 4.131077 -13.465202 0 CFG=1
M  V30 18 C 11.523374 9.386363 -4.869467 0
M  V30 19 C 9.871181 5.812616 -12.720689 0
M  V30 20 C 6.996674 4.845873 -12.646466 0 CFG=2
M  V30 21 C 12.496909 8.904435 -2.541756 0
M  V30 22 C 12.147774 8.401203 -8.514556 0
M  V30 23 O 11.592484 7.450451 -11.112877 0
M  V30 24 C 7.544856 3.260014 -14.622025 0
M  V30 25 H 13.338400 8.400747 -4.385025 0
M  V30 26 H 6.874308 6.830081 -11.591203 0
M  V30 27 H 12.975405 7.673015 -0.852531 0
M  V30 28 H 11.229053 7.832953 -1.186040 0
M  V30 29 H 10.725959 6.915337 -3.984999 0
M  V30 30 H 12.175249 6.349626 -4.718900 0
M  V30 31 H 13.270777 6.103073 -2.564096 0
M  V30 32 H 11.618180 5.672484 -2.153464 0
M  V30 33 H 13.325586 9.231566 -6.910245 0
M  V30 34 H 5.873165 5.609050 -14.334608 0
M  V30 35 H 5.174122 4.154049 -13.588171 0
M  V30 36 H 5.028280 5.715301 -12.792949 0
M  V30 37 H 5.989420 4.711268 -10.644521 0
M  V30 38 H 7.676335 3.990264 -10.683291 0
M  V30 39 H 9.213656 8.383873 -5.949994 0
M  V30 40 H 8.627063 5.942817 -14.502843 0
M  V30 41 H 9.852927 4.709918 -14.579291 0
M  V30 42 H 8.843036 7.552620 -8.246551 0
M  V30 43 H 8.587030 3.441210 -12.790981 0
M  V30 44 H 12.046250 10.339656 -4.942004 0
M  V30 45 H 10.575465 9.618930 -4.395796 0
M  V30 46 H 10.483061 6.623294 -13.108923 0
M  V30 47 H 10.558460 5.079338 -12.300508 0
M  V30 48 H 13.533185 9.190489 -2.384801 0
M  V30 49 H 11.863680 9.757931 -2.294808 0
M  V30 50 H 12.965833 8.412855 -9.221346 0
M  V30 51 H 7.066825 3.854053 -15.400913 0
M  V30 52 H 8.347892 2.698583 -15.096801 0
M  V30 53 H 6.820676 2.529663 -14.259223 0
M  V30 END ATOM
M  V30 BEGIN BOND
M  V30 1 1 5 2
M  V30 2 1 6 1
M  V30 3 1 7 3
M  V30 4 1 7 6
M  V30 5 2 8 5
M  V30 6 1 10 4
M  V30 7 1 10 8
M  V30 8 1 12 2
M  V30 9 1 15 9
M  V30 10 2 15 13
M  V30 11 2 16 4
M  V30 12 1 16 13
M  V30 13 1 17 14
M  V30 14 1 18 1
M  V30 15 1 18 15
M  V30 16 1 19 5
M  V30 17 1 19 14
M  V30 18 1 20 2
M  V30 19 1 20 11 CFG=3
M  V30 20 1 20 12
M  V30 21 1 20 17
M  V30 22 1 21 1
M  V30 23 1 21 3
M  V30 24 1 22 4
M  V30 25 2 22 9
M  V30 26 2 23 10
M  V30 27 1 24 17
M  V30 28 1 25 1
M  V30 29 1 2 26 CFG=1
M  V30 30 1 27 3
M  V30 31 1 28 3
M  V30 32 1 29 6
M  V30 33 1 30 6
M  V30 34 1 31 7
M  V30 35 1 32 7
M  V30 36 1 33 9
M  V30 37 1 34 11
M  V30 38 1 35 11
M  V30 39 1 36 11
M  V30 40 1 37 12
M  V30 41 1 38 12
M  V30 42 1 39 13
M  V30 43 1 40 14
M  V30 44 1 41 14
M  V30 45 1 42 16
M  V30 46 1 17 43 CFG=1
M  V30 47 1 44 18
M  V30 48 1 45 18
M  V30 49 1 46 19
M  V30 50 1 47 19
M  V30 51 1 48 21
M  V30 52 1 49 21
M  V30 53 1 50 22
M  V30 54 1 51 24
M  V30 55 1 52 24
M  V30 56 1 53 24
M  V30 END BOND
M  V30 END CTAB
M  END
>  <i_epik_Tot_Q>  (1) 
0

>  <i_epik_Tot_abs_Q>  (1) 
0

>  <i_i_glide_confnum>  (1) 
24

>  <i_i_glide_lignum>  (1) 
137

>  <i_i_glide_posenum>  (1) 
243

>  <i_i_glide_rotatable_bonds>  (1) 
4

>  <i_lp_mmshare_version>  (1) 
72125

>  <i_m_source_file_index>  (1) 
80

>  <i_f3d_flags>  (1) 
0

>  <num_sample>  (1) 
100

>  <b_lp_Chiralities_Consistent>  (1) 
1

>  <r_epik_Charging_Adjusted_Penalty>  (1) 
0

>  <r_epik_Ionization_Penalty>  (1) 
0

>  <r_epik_Ionization_Penalty_Charging>  (1) 
0

>  <r_epik_Ionization_Penalty_Neutral>  (1) 
0

>  <r_epik_State_Penalty>  (1) 
-0

>  <r_glide_ring_energy>  (1) 
0.22242768926462378

>  <r_i_docking_score>  (1) 
-6.3489261676800366

>  <r_i_glide_ecoul>  (1) 
-0.51254695858586274

>  <r_i_glide_eff_state_penalty>  (1) 
-0

>  <r_i_glide_einternal>  (1) 
1.453498048000986

>  <r_i_glide_emodel>  (1) 
-41.205486437457019

>  <r_i_glide_emodel_strain>  (1) 
0.053000826122513445

>  <r_i_glide_energy>  (1) 
-31.997021803387913

>  <r_i_glide_erotb>  (1) 
0.71538486133248902

>  <r_i_glide_esite>  (1) 
-0.041469330492067052

>  <r_i_glide_evdw>  (1) 
-31.484474844802051

>  <r_i_glide_gscore>  (1) 
-6.3489261676800366

>  <r_i_glide_gscore_strain>  (1) 
0

>  <r_i_glide_hbond>  (1) 
0

>  <r_i_glide_ligand_efficiency>  (1) 
-0.26453859032000154

>  <r_i_glide_ligand_efficiency_ln>  (1) 
-1.5195893651641397

>  <r_i_glide_ligand_efficiency_sa>  (1) 
-0.76306133643749952

>  <r_i_glide_lipo>  (1) 
-3.2682077079470204

>  <r_i_glide_metal>  (1) 
-0

>  <r_i_glide_rewards>  (1) 
-2.103528204545456

>  <r_lp_Energy>  (1) 
53.127567999999997

>  <r_lp_tautomer_probability>  (1) 
1

>  <s_epik_Chemistry_Notes>  (1) 
This compound has an imine and may undergo hydrolysis.

>  <s_epik_cmdline>  (1) 
J2VwaWtfcHl0aG9uJywgJy1waHQnLCAnMS4wJywgJy1waCcsICc3LjQnLCAnLXRuJywgJzgnLCAnLW1hJywgJzUwMCcsICctaW1hZScsICc8aW5maWxlLm1hZT4nLCAnLW9tYWUnLCAnPG91dGZpbGUubWFlPic=

>  <s_epik_input>  (1) 
W0NIMl0xW0NIMl1bQ0gyXVtDSDJdW0NIXTFbQ0gyXWMoW2NIXVtjSF0yKVtjSF1bY0hdYzJDKD1PKVxOPUMoXFtDQEhdKFtDSDJdMylDMzRbQ0gzXSlbQ0gyXVtDSDJdW0NAQEhdNFtDSDNd

>  <s_glide_docking_method>  (1) 
confgen

>  <s_i_glide_gridfile>  (1) 
gpcr_drd2_6luq_protein_autoprepared_prepared

>  <s_lp_Force_Field>  (1) 
S-OPLS

>  <s_lp_Variant>  (1) 
DiffSBDD_79-1

>  <s_m_source_file>  (1) 
generated_generic_title2_ligand_DiffSBDD_2026-06-23_prepared.sdf

>  <GenAI_Model>  (1) 
DiffSBDD

>  <Protein>  (1) 
generic_title2

$$$$
DiffSBDD_40
     RDKit          3D

  0  0  0  0  0  0  0  0  0  0999 V3000
M  V30 BEGIN CTAB
M  V30 COUNTS 89 95 0 0 1
M  V30 BEGIN ATOM
M  V30 1 N 13.903300 4.071277 -18.867525 0
M  V30 2 C 13.927271 2.680569 -16.779240 0
M  V30 3 C 6.893723 3.146280 -13.867413 0
M  V30 4 C 10.982369 7.240558 -10.342477 0
M  V30 5 C 7.166747 2.894517 -15.266006 0
M  V30 6 C 13.574492 4.110133 -17.412359 0 CFG=2
M  V30 7 C 6.515644 0.552446 -14.953185 0
M  V30 8 C 8.668884 5.672200 -11.496953 0 CFG=1
M  V30 9 O 11.871893 6.195302 -18.846563 0
M  V30 10 C 7.122512 4.527254 -13.189481 0 CFG=1
M  V30 11 C 7.656570 3.987572 -16.230857 0 CFG=1
M  V30 12 N 12.028660 7.755945 -20.408909 0
M  V30 13 C 12.350166 4.843642 -16.888700 0 CFG=1
M  V30 14 C 7.325032 6.269387 -15.206230 0
M  V30 15 N 8.175406 5.648547 -7.185091 0 CHG=1
M  V30 16 C 11.165571 7.045301 -19.610853 0
M  V30 17 O 9.376964 4.500018 -13.584759 0
M  V30 18 C 14.538605 2.080660 -17.999181 0
M  V30 19 C 9.759002 6.226621 -12.261782 0
M  V30 20 C 10.355740 4.293619 -18.353053 0
M  V30 21 C 15.094997 2.486657 -20.297693 0
M  V30 22 C 14.518231 2.876501 -19.079219 0
M  V30 23 N 8.383886 4.511124 -12.454807 0
M  V30 24 C 10.441401 7.454438 -11.759178 0
M  V30 25 O 9.942283 7.153344 -19.584420 0
M  V30 26 C 6.426768 2.081181 -13.061149 0
M  V30 27 N 9.375404 7.224914 -8.520363 0
M  V30 28 C 9.231133 5.250928 -10.134312 0
M  V30 29 C 6.975457 1.590108 -15.780425 0
M  V30 30 C 6.754064 5.897033 -13.844349 0 CFG=1
M  V30 31 C 6.238549 0.796990 -13.601713 0
M  V30 32 C 15.117536 0.801038 -18.039156 0
M  V30 33 C 13.726544 5.430413 -16.683723 0
M  V30 34 C 15.702411 0.356476 -19.249025 0
M  V30 35 C 9.226151 6.669530 -7.183398 0
M  V30 36 C 5.258697 6.119089 -13.759106 0
M  V30 37 C 6.916639 5.319954 -16.297849 0
M  V30 38 C 11.271357 5.419446 -17.806514 0 CFG=2
M  V30 39 C 15.695696 1.208613 -20.385935 0
M  V30 40 O 9.071877 4.149352 -16.284537 0
M  V30 41 C 10.079264 5.590302 -13.319020 0
M  V30 42 C 9.763539 3.374726 -17.267127 0
M  V30 43 C 10.108846 6.346674 -9.421233 0 CFG=1
M  V30 44 H 14.267327 4.902766 -19.310312 0
M  V30 45 H 14.645038 2.769289 -15.964251 0
M  V30 46 H 13.031512 2.144137 -16.463596 0
M  V30 47 H 11.967767 6.790396 -10.443089 0
M  V30 48 H 11.190091 8.207170 -9.879372 0
M  V30 49 H 6.373066 -0.437208 -15.360664 0
M  V30 50 H 7.846722 6.373414 -11.357235 0
M  V30 51 H 6.426647 4.475736 -12.350948 0
M  V30 52 H 7.358670 3.594663 -17.203502 0
M  V30 53 H 13.017111 7.574873 -20.328461 0
M  V30 54 H 11.642479 8.439287 -21.041744 0
M  V30 55 H 11.920513 4.426650 -15.985071 0
M  V30 56 H 8.407422 6.347977 -15.182158 0
M  V30 57 H 6.974473 7.269194 -15.466415 0
M  V30 58 H 8.106426 5.233175 -6.269725 0
M  V30 59 H 7.309954 6.173899 -7.363295 0
M  V30 60 H 10.919367 3.681979 -19.059090 0
M  V30 61 H 9.530900 4.724030 -18.918912 0
M  V30 62 H 15.075658 3.146221 -21.152907 0
M  V30 63 H 11.277659 7.590226 -12.440809 0
M  V30 64 H 9.765314 8.309101 -11.813353 0
M  V30 65 H 6.217136 2.253453 -12.016043 0
M  V30 66 H 8.469214 7.532704 -8.914918 0
M  V30 67 H 9.841029 4.364864 -10.290191 0
M  V30 68 H 8.405007 4.893928 -9.529085 0
M  V30 69 H 7.179557 1.388338 -16.821100 0
M  V30 70 H 7.124827 6.705729 -13.222597 0
M  V30 71 H 5.883999 -0.006134 -12.971546 0
M  V30 72 H 15.122877 0.171956 -17.161228 0
M  V30 73 H 13.985657 6.315128 -17.261498 0
M  V30 74 H 14.117587 5.411907 -15.667999 0
M  V30 75 H 16.156678 -0.623167 -19.305666 0
M  V30 76 H 10.164272 6.261616 -6.805459 0
M  V30 77 H 8.921080 7.465258 -6.503698 0
M  V30 78 H 4.697983 5.328515 -14.253685 0
M  V30 79 H 4.975429 6.137514 -12.707897 0
M  V30 80 H 4.975582 7.078917 -14.188966 0
M  V30 81 H 7.172107 5.794357 -17.247343 0
M  V30 82 H 5.837244 5.190457 -16.318109 0
M  V30 83 H 10.667450 6.091221 -17.195509 0
M  V30 84 H 16.143769 0.882438 -21.311786 0
M  V30 85 H 10.860298 5.814861 -14.030237 0
M  V30 86 H 10.562162 2.817670 -16.785089 0
M  V30 87 H 9.142401 2.606510 -17.727829 0
M  V30 88 H 10.819230 5.818763 -8.785119 0
M  V30 89 H 8.332803 4.953889 -7.898168 0
M  V30 END ATOM
M  V30 BEGIN BOND
M  V30 1 1 5 3
M  V30 2 1 6 1 CFG=3
M  V30 3 1 6 2
M  V30 4 1 10 3
M  V30 5 1 11 5
M  V30 6 1 13 6
M  V30 7 1 16 9
M  V30 8 1 16 12
M  V30 9 1 18 2
M  V30 10 1 19 8
M  V30 11 1 22 1
M  V30 12 1 22 18
M  V30 13 2 22 21
M  V30 14 1 23 8
M  V30 15 1 23 10
M  V30 16 1 23 17
M  V30 17 1 24 4
M  V30 18 1 24 19
M  V30 19 2 25 16
M  V30 20 2 26 3
M  V30 21 1 28 8
M  V30 22 2 29 5
M  V30 23 1 29 7
M  V30 24 1 30 10
M  V30 25 1 30 14
M  V30 26 2 31 7
M  V30 27 1 31 26
M  V30 28 2 32 18
M  V30 29 1 33 6
M  V30 30 1 33 13
M  V30 31 1 34 32
M  V30 32 1 35 15
M  V30 33 1 35 27
M  V30 34 1 36 30
M  V30 35 1 37 11
M  V30 36 1 37 14
M  V30 37 1 38 9
M  V30 38 1 38 13
M  V30 39 1 38 20
M  V30 40 1 39 21
M  V30 41 2 39 34
M  V30 42 1 40 11
M  V30 43 1 41 17
M  V30 44 2 41 19
M  V30 45 1 42 20
M  V30 46 1 42 40
M  V30 47 1 43 4
M  V30 48 1 43 27
M  V30 49 1 43 28
M  V30 50 1 44 1
M  V30 51 1 45 2
M  V30 52 1 46 2
M  V30 53 1 47 4
M  V30 54 1 48 4
M  V30 55 1 49 7
M  V30 56 1 8 50 CFG=1
M  V30 57 1 10 51 CFG=1
M  V30 58 1 11 52 CFG=3
M  V30 59 1 53 12
M  V30 60 1 54 12
M  V30 61 1 13 55 CFG=1
M  V30 62 1 56 14
M  V30 63 1 57 14
M  V30 64 1 58 15
M  V30 65 1 59 15
M  V30 66 1 60 20
M  V30 67 1 61 20
M  V30 68 1 62 21
M  V30 69 1 63 24
M  V30 70 1 64 24
M  V30 71 1 65 26
M  V30 72 1 66 27
M  V30 73 1 67 28
M  V30 74 1 68 28
M  V30 75 1 69 29
M  V30 76 1 30 70 CFG=1
M  V30 77 1 71 31
M  V30 78 1 72 32
M  V30 79 1 73 33
M  V30 80 1 74 33
M  V30 81 1 75 34
M  V30 82 1 76 35
M  V30 83 1 77 35
M  V30 84 1 78 36
M  V30 85 1 79 36
M  V30 86 1 80 36
M  V30 87 1 81 37
M  V30 88 1 82 37
M  V30 89 1 38 83 CFG=1
M  V30 90 1 84 39
M  V30 91 1 85 41
M  V30 92 1 86 42
M  V30 93 1 87 42
M  V30 94 1 43 88 CFG=1
M  V30 95 1 89 15
M  V30 END BOND
M  V30 END CTAB
M  END
>  <i_epik_Tot_Q>  (1) 
1

>  <i_epik_Tot_abs_Q>  (1) 
1

>  <i_i_glide_confnum>  (1) 
721

>  <i_i_glide_lignum>  (1) 
66

>  <i_i_glide_posenum>  (1) 
120

>  <i_i_glide_rotatable_bonds>  (1) 
10

>  <i_lp_mmshare_version>  (1) 
72125

>  <i_m_source_file_index>  (1) 
41

>  <i_f3d_flags>  (1) 
0

>  <num_sample>  (1) 
100

>  <b_lp_Chiralities_Consistent>  (1) 
1

>  <r_epik_Charging_Adjusted_Penalty>  (1) 
0.00021732795814705282

>  <r_epik_Ionization_Penalty>  (1) 
0.031196808922400864

>  <r_epik_Ionization_Penalty_Charging>  (1) 
0.00021732795814705282

>  <r_epik_Ionization_Penalty_Neutral>  (1) 
0.030979480964253809

>  <r_epik_State_Penalty>  (1) 
-0

>  <r_glide_ring_energy>  (1) 
0

>  <r_i_docking_score>  (1) 
-6.3449524629205296

>  <r_i_glide_ecoul>  (1) 
-9.7913897508059105

>  <r_i_glide_eff_state_penalty>  (1) 
-0

>  <r_i_glide_einternal>  (1) 
34.114769934522933

>  <r_i_glide_emodel>  (1) 
-33.328457794056746

>  <r_i_glide_emodel_strain>  (1) 
3.5735407889194164

>  <r_i_glide_energy>  (1) 
-38.183138783675957

>  <r_i_glide_erotb>  (1) 
0.31563021086283022

>  <r_i_glide_esite>  (1) 
-0.17973677850584077

>  <r_i_glide_evdw>  (1) 
-28.391749032870045

>  <r_i_glide_gscore>  (1) 
-6.3449524629205296

>  <r_i_glide_gscore_strain>  (1) 
0

>  <r_i_glide_hbond>  (1) 
-0.35854615934308443

>  <r_i_glide_ligand_efficiency>  (1) 
-0.14755703402140766

>  <r_i_glide_ligand_efficiency_ln>  (1) 
-1.3326372151438679

>  <r_i_glide_ligand_efficiency_sa>  (1) 
-0.51695102678701754

>  <r_i_glide_lipo>  (1) 
-2.1110463817261076

>  <r_i_glide_metal>  (1) 
-0

>  <r_i_glide_rewards>  (1) 
-1.1229574399439377

>  <r_lp_Energy>  (1) 
52.272574999999996

>  <r_lp_tautomer_probability>  (1) 
1

>  <s_epik_Chemistry_Notes>  (1) 
This compound has an ester and may undergo hydrolysis at high or low pH. This compound contains an acetal/aminal-like group ( X-CH(R)-Y where X, Y are N, S, or O) that may be acid/base labile, releasing an aldehyde. This compound has a N-S or N-O group and may undergo hydrolysis at high or low pH.

>  <s_epik_cmdline>  (1) 
J2VwaWtfcHl0aG9uJywgJy1waHQnLCAnMS4wJywgJy1waCcsICc3LjQnLCAnLXRuJywgJzgnLCAnLW1hJywgJzUwMCcsICctaW1hZScsICc8aW5maWxlLm1hZT4nLCAnLW9tYWUnLCAnPG91dGZpbGUubWFlPic=

>  <s_epik_input>  (1) 
W2NIXTFbY0hdW2NIXVtjSF1jKFtDSDJdMiljMVtOSF1bQ0BAXTIzW0NAQEhdKFtDSDJdMylbQ0BASF0oT0MoPU8pW05IMl0pW0NIMl1bQ0gyXU9bQ0BASF0oYyhjNDUpW2NIXVtjSF1bY0hdW2NIXTUpW0NIMl1bQ0gyXVtDQEBIXShbQ0gzXSlbQ0BASF00TjZPW0NIXT1DKFtDQEBIXTY3KVtDSDJdW0NIMl1bQ0BIXShbQ0gyXTcpW05IXVtDSDJdW05IMl0=

>  <s_glide_docking_method>  (1) 
confgen

>  <s_i_glide_gridfile>  (1) 
gpcr_drd2_6luq_protein_autoprepared_prepared

>  <s_lp_Force_Field>  (1) 
S-OPLS

>  <s_lp_Variant>  (1) 
DiffSBDD_40-1

>  <s_m_source_file>  (1) 
generated_generic_title2_ligand_DiffSBDD_2026-06-23_prepared.sdf

>  <GenAI_Model>  (1) 
DiffSBDD

>  <Protein>  (1) 
generic_title2

$$$$
DiffSBDD_22
     RDKit          3D

  0  0  0  0  0  0  0  0  0  0999 V3000
M  V30 BEGIN CTAB
M  V30 COUNTS 29 30 0 0 1
M  V30 BEGIN ATOM
M  V30 1 C 9.643488 7.009102 -7.978882 0 CFG=1
M  V30 2 N 8.575409 6.005578 -7.771095 0 CHG=1
M  V30 3 C 7.830644 4.913973 -9.898486 0
M  V30 4 C 12.333391 7.634104 -2.394215 0
M  V30 5 C 10.684879 7.313881 -6.938115 0 CFG=2
M  V30 6 C 11.775407 6.724193 -3.253384 0
M  V30 7 C 8.640883 4.790135 -8.596727 0
M  V30 8 C 10.830468 6.512527 -5.658931 0
M  V30 9 C 11.448109 7.288369 -4.534390 0
M  V30 10 O 9.774128 7.315881 -9.350251 0
M  V30 11 C 9.479185 8.228198 -7.123726 0
M  V30 12 S 12.463180 9.190189 -3.124619 0
M  V30 13 C 11.775385 8.627636 -4.602635 0
M  V30 14 H 8.619231 5.731092 -6.801957 0
M  V30 15 H 7.866462 3.990263 -10.472597 0
M  V30 16 H 6.783215 5.136034 -9.695870 0
M  V30 17 H 8.209948 5.698936 -10.551413 0
M  V30 18 H 12.672325 7.478991 -1.382538 0
M  V30 19 H 11.631793 7.677713 -7.333972 0
M  V30 20 H 11.592941 5.686198 -3.016510 0
M  V30 21 H 9.678764 4.518280 -8.797466 0
M  V30 22 H 8.218976 3.990249 -7.985025 0
M  V30 23 H 9.855522 6.142532 -5.342952 0
M  V30 24 H 11.440125 5.636343 -5.880837 0
M  V30 25 H 8.912238 7.593907 -9.656390 0
M  V30 26 H 9.649306 9.190205 -7.591628 0
M  V30 27 H 8.700273 8.217456 -6.363303 0
M  V30 28 H 11.648166 9.307843 -5.432369 0
M  V30 29 H 7.671432 6.465964 -7.903300 0
M  V30 END ATOM
M  V30 BEGIN BOND
M  V30 1 1 2 1
M  V30 2 1 5 1
M  V30 3 2 6 4
M  V30 4 1 7 2
M  V30 5 1 7 3
M  V30 6 1 8 5
M  V30 7 1 9 6
M  V30 8 1 9 8
M  V30 9 1 1 10 CFG=3
M  V30 10 1 11 1
M  V30 11 1 11 5
M  V30 12 1 12 4
M  V30 13 2 13 9
M  V30 14 1 13 12
M  V30 15 1 14 2
M  V30 16 1 15 3
M  V30 17 1 16 3
M  V30 18 1 17 3
M  V30 19 1 18 4
M  V30 20 1 5 19 CFG=3
M  V30 21 1 20 6
M  V30 22 1 21 7
M  V30 23 1 22 7
M  V30 24 1 23 8
M  V30 25 1 24 8
M  V30 26 1 25 10
M  V30 27 1 26 11
M  V30 28 1 27 11
M  V30 29 1 28 13
M  V30 30 1 29 2
M  V30 END BOND
M  V30 END CTAB
M  END
>  <i_epik_Tot_Q>  (1) 
1

>  <i_epik_Tot_abs_Q>  (1) 
1

>  <i_i_glide_confnum>  (1) 
12

>  <i_i_glide_lignum>  (1) 
40

>  <i_i_glide_posenum>  (1) 
16

>  <i_i_glide_rotatable_bonds>  (1) 
5

>  <i_lp_mmshare_version>  (1) 
72125

>  <i_m_source_file_index>  (1) 
23

>  <i_f3d_flags>  (1) 
0

>  <num_sample>  (1) 
100

>  <b_lp_Chiralities_Consistent>  (1) 
1

>  <r_epik_Charging_Adjusted_Penalty>  (1) 
1.3614070434525585

>  <r_epik_Ionization_Penalty>  (1) 
0.68090079983986818

>  <r_epik_Ionization_Penalty_Charging>  (1) 
0.68070352172627924

>  <r_epik_Ionization_Penalty_Neutral>  (1) 
0.00019727811358890825

>  <r_epik_State_Penalty>  (1) 
0.68070352172627924

>  <r_glide_ring_energy>  (1) 
0

>  <r_i_docking_score>  (1) 
-6.3366183023784801

>  <r_i_glide_ecoul>  (1) 
-8.4620228740236367

>  <r_i_glide_eff_state_penalty>  (1) 
0.68070352172627924

>  <r_i_glide_einternal>  (1) 
4.9126911175464638

>  <r_i_glide_emodel>  (1) 
-47.760528137303467

>  <r_i_glide_emodel_strain>  (1) 
1.8167802994977222

>  <r_i_glide_energy>  (1) 
-31.738364000862397

>  <r_i_glide_erotb>  (1) 
0.8697133986629777

>  <r_i_glide_esite>  (1) 
-0.17076253423427784

>  <r_i_glide_evdw>  (1) 
-23.276341126838759

>  <r_i_glide_gscore>  (1) 
-7.0173218241047595

>  <r_i_glide_gscore_strain>  (1) 
0

>  <r_i_glide_hbond>  (1) 
-0.46295942763628095

>  <r_i_glide_ligand_efficiency>  (1) 
-0.48743217710603692

>  <r_i_glide_ligand_efficiency_ln>  (1) 
-1.7774777891629132

>  <r_i_glide_ligand_efficiency_sa>  (1) 
-1.1461161859406725

>  <r_i_glide_lipo>  (1) 
-1.7915428340577566

>  <r_i_glide_metal>  (1) 
-0

>  <r_i_glide_rewards>  (1) 
-3.0286499393939392

>  <r_lp_Energy>  (1) 
5.1831209999999999

>  <s_epik_cmdline>  (1) 
J2VwaWtfcHl0aG9uJywgJy1waHQnLCAnMS4wJywgJy1waCcsICc3LjQnLCAnLXRuJywgJzgnLCAnLW1hJywgJzUwMCcsICctaW1hZScsICc8aW5maWxlLm1hZT4nLCAnLW9tYWUnLCAnPG91dGZpbGUubWFlPic=

>  <s_epik_input>  (1) 
W0NIM11bQ0gyXVtOSF1bQ0BdMShbT0hdKVtDQEBIXShbQ0gyXTEpW0NIMl1jMltjSF1bY0hdc1tjSF0y

>  <s_glide_docking_method>  (1) 
confgen

>  <s_i_glide_gridfile>  (1) 
gpcr_drd2_6luq_protein_autoprepared_prepared

>  <s_lp_Force_Field>  (1) 
S-OPLS

>  <s_lp_Variant>  (1) 
DiffSBDD_22-2

>  <s_m_source_file>  (1) 
generated_generic_title2_ligand_DiffSBDD_2026-06-23_prepared.sdf

>  <GenAI_Model>  (1) 
DiffSBDD

>  <Protein>  (1) 
generic_title2

$$$$
DiffSBDD_94
     RDKit          3D

  0  0  0  0  0  0  0  0  0  0999 V3000
M  V30 BEGIN CTAB
M  V30 COUNTS 66 70 0 0 1
M  V30 BEGIN ATOM
M  V30 1 C 8.979859 4.469633 -11.602608 0
M  V30 2 C 9.457445 5.127615 -15.968270 0
M  V30 3 O 4.975409 0.150009 -19.985008 0
M  V30 4 C 9.190566 4.886767 -13.060267 0
M  V30 5 C 6.048595 1.061570 -20.094972 0 CFG=1
M  V30 6 N 12.579219 8.790177 -7.518084 0
M  V30 7 C 12.171758 9.419330 -6.384851 0
M  V30 8 C 8.028830 5.425045 -10.890280 0 CFG=2
M  V30 9 C 10.490862 7.762191 -7.673580 0
M  V30 10 C 7.416383 0.457652 -19.810288 0 CFG=1
M  V30 11 Cl 5.775455 3.990227 -11.311728 0
M  V30 12 C 6.970599 0.717633 -21.236305 0
M  V30 13 C 9.605287 6.810232 -8.457424 0 CFG=2
M  V30 14 C 7.603104 4.252148 -15.966762 0
M  V30 15 C 8.145218 5.462956 -15.235418 0 CFG=1
M  V30 16 C 6.697148 5.472568 -11.643732 0 CFG=2
M  V30 17 C 7.953814 2.504200 -18.370456 0 CFG=1
M  V30 18 C 9.905704 5.381215 -7.985164 0
M  V30 19 C 10.893656 9.245861 -5.841201 0
M  V30 20 O 5.816650 6.040628 -13.803309 0
M  V30 21 N 11.749283 7.945517 -8.151348 0
M  V30 22 N 8.582297 4.557637 -17.009024 0 CFG=2 CHG=1
M  V30 23 C 8.507439 1.294901 -19.156088 0
M  V30 24 N 7.980536 5.350650 -13.773536 0
M  V30 25 F 7.454506 -0.871788 -19.426446 0
M  V30 26 C 9.086128 3.386791 -17.773855 0
M  V30 27 C 10.017984 8.390215 -6.511662 0
M  V30 28 C 5.693917 2.484339 -19.690334 0
M  V30 29 O 7.058113 4.462507 -19.479880 0
M  V30 30 C 6.796633 5.648743 -13.170532 0
M  V30 31 C 9.780825 7.035788 -9.982256 0
M  V30 32 C 6.916720 3.270122 -19.212785 0
M  V30 33 N 8.575415 6.790167 -10.785025 0 CHG=1
M  V30 34 H 9.932837 4.390406 -11.085099 0
M  V30 35 H 8.565921 3.462585 -11.585363 0
M  V30 36 H 10.120930 4.390216 -15.524823 0
M  V30 37 H 10.021079 5.990295 -16.320487 0
M  V30 38 H 4.552723 0.061964 -20.833876 0
M  V30 39 H 9.602168 4.005761 -13.543799 0
M  V30 40 H 9.949936 5.668435 -13.115906 0
M  V30 41 H 12.888221 10.072733 -5.909955 0
M  V30 42 H 7.811980 5.068688 -9.885000 0
M  V30 43 H 6.728045 -0.148055 -21.850142 0
M  V30 44 H 7.435931 1.543284 -21.770682 0
M  V30 45 H 8.575536 7.036076 -8.181222 0
M  V30 46 H 6.575413 4.364025 -16.294247 0
M  V30 47 H 7.780800 3.303494 -15.453146 0
M  V30 48 H 7.714350 6.390115 -15.624486 0
M  V30 49 H 6.083838 6.284977 -11.246893 0
M  V30 50 H 7.386846 2.092113 -17.535083 0
M  V30 51 H 9.561807 5.272671 -6.959693 0
M  V30 52 H 9.419366 4.605086 -8.568915 0
M  V30 53 H 10.975340 5.177233 -7.985039 0
M  V30 54 H 10.594794 9.759641 -4.940043 0
M  V30 55 H 9.206337 1.625019 -19.925480 0
M  V30 56 H 9.075932 0.654375 -18.480821 0
M  V30 57 H 9.699783 2.764662 -17.120480 0
M  V30 58 H 9.748154 3.746482 -18.562972 0
M  V30 59 H 9.014888 8.217476 -6.148913 0
M  V30 60 H 5.212266 2.994334 -20.524697 0
M  V30 61 H 4.975847 2.448136 -18.870661 0
M  V30 62 H 10.611976 6.477284 -10.390592 0
M  V30 63 H 10.002443 8.088895 -10.162354 0
M  V30 64 H 8.695396 7.185150 -11.704938 0
M  V30 65 H 7.845573 7.328555 -10.277951 0
M  V30 66 H 8.216516 5.271386 -17.626368 0
M  V30 END ATOM
M  V30 BEGIN BOND
M  V30 1 1 4 1
M  V30 2 1 5 3 CFG=3
M  V30 3 1 7 6
M  V30 4 1 8 1
M  V30 5 1 10 5
M  V30 6 1 12 5
M  V30 7 1 12 10
M  V30 8 1 13 9
M  V30 9 1 15 2
M  V30 10 1 15 14
M  V30 11 1 16 8
M  V30 12 1 16 11
M  V30 13 1 18 13
M  V30 14 2 19 7
M  V30 15 2 21 6
M  V30 16 1 21 9
M  V30 17 1 22 2
M  V30 18 1 22 14
M  V30 19 1 23 10
M  V30 20 1 23 17
M  V30 21 1 24 4
M  V30 22 1 24 15
M  V30 23 1 10 25 CFG=3
M  V30 24 1 26 17
M  V30 25 1 26 22
M  V30 26 2 27 9
M  V30 27 1 27 19
M  V30 28 1 28 5
M  V30 29 1 30 16
M  V30 30 2 30 20
M  V30 31 1 30 24
M  V30 32 1 31 13
M  V30 33 1 32 17
M  V30 34 1 32 28
M  V30 35 2 32 29
M  V30 36 1 33 8
M  V30 37 1 33 31
M  V30 38 1 34 1
M  V30 39 1 35 1
M  V30 40 1 36 2
M  V30 41 1 37 2
M  V30 42 1 38 3
M  V30 43 1 39 4
M  V30 44 1 40 4
M  V30 45 1 41 7
M  V30 46 1 8 42 CFG=1
M  V30 47 1 43 12
M  V30 48 1 44 12
M  V30 49 1 13 45 CFG=1
M  V30 50 1 46 14
M  V30 51 1 47 14
M  V30 52 1 15 48 CFG=3
M  V30 53 1 16 49 CFG=1
M  V30 54 1 17 50 CFG=1
M  V30 55 1 51 18
M  V30 56 1 52 18
M  V30 57 1 53 18
M  V30 58 1 54 19
M  V30 59 1 55 23
M  V30 60 1 56 23
M  V30 61 1 57 26
M  V30 62 1 58 26
M  V30 63 1 59 27
M  V30 64 1 60 28
M  V30 65 1 61 28
M  V30 66 1 62 31
M  V30 67 1 63 31
M  V30 68 1 64 33
M  V30 69 1 65 33
M  V30 70 1 22 66 CFG=3
M  V30 END BOND
M  V30 END CTAB
M  END
>  <i_epik_Tot_Q>  (1) 
2

>  <i_epik_Tot_abs_Q>  (1) 
2

>  <i_i_glide_confnum>  (1) 
18

>  <i_i_glide_lignum>  (1) 
179

>  <i_i_glide_posenum>  (1) 
104

>  <i_i_glide_rotatable_bonds>  (1) 
8

>  <i_lp_mmshare_version>  (1) 
72125

>  <i_m_source_file_index>  (1) 
95

>  <i_f3d_flags>  (1) 
0

>  <num_sample>  (1) 
100

>  <b_lp_Chiralities_Consistent>  (1) 
1

>  <r_epik_Charging_Adjusted_Penalty>  (1) 
0.95188217531897845

>  <r_epik_Ionization_Penalty>  (1) 
0.49022780398244736

>  <r_epik_Ionization_Penalty_Charging>  (1) 
0.49020808109847258

>  <r_epik_Ionization_Penalty_Neutral>  (1) 
1.9722883974789891e-05

>  <r_epik_State_Penalty>  (1) 
0.46167409422050587

>  <r_glide_ring_energy>  (1) 
1.3165782718524275

>  <r_i_docking_score>  (1) 
-6.3353493529281533

>  <r_i_glide_ecoul>  (1) 
-14.631472965341118

>  <r_i_glide_eff_state_penalty>  (1) 
0.46167409422050587

>  <r_i_glide_einternal>  (1) 
12.789259318494189

>  <r_i_glide_emodel>  (1) 
-63.239710053599133

>  <r_i_glide_emodel_strain>  (1) 
0.70743488222153417

>  <r_i_glide_energy>  (1) 
-48.001627830679844

>  <r_i_glide_erotb>  (1) 
0.52401424714319955

>  <r_i_glide_esite>  (1) 
-0.10000000000000001

>  <r_i_glide_evdw>  (1) 
-33.370154865338726

>  <r_i_glide_gscore>  (1) 
-6.7970234471486588

>  <r_i_glide_gscore_strain>  (1) 
0

>  <r_i_glide_hbond>  (1) 
-0.43528122493775268

>  <r_i_glide_ligand_efficiency>  (1) 
-0.19198028342206525

>  <r_i_glide_ligand_efficiency_ln>  (1) 
-1.4089488934078336

>  <r_i_glide_ligand_efficiency_sa>  (1) 
-0.61578334975860294

>  <r_i_glide_lipo>  (1) 
-1.774489021871698

>  <r_i_glide_metal>  (1) 
-0

>  <r_i_glide_rewards>  (1) 
-1.1480387594143029

>  <r_lp_Energy>  (1) 
63.815528

>  <r_lp_tautomer_probability>  (1) 
0.99999998000000001

>  <s_epik_cmdline>  (1) 
J2VwaWtfcHl0aG9uJywgJy1waHQnLCAnMS4wJywgJy1waCcsICc3LjQnLCAnLXRuJywgJzgnLCAnLW1hJywgJzUwMCcsICctaW1hZScsICc8aW5maWxlLm1hZT4nLCAnLW9tYWUnLCAnPG91dGZpbGUubWFlPic=

>  <s_epik_input>  (1) 
W2NIXTFbY0hdW2NIXW5uYzFbQ0BIXShbQ0gzXSlbQ0gyXVtOSF1bQ0BASF0yW0NIMl1bQ0gyXU4oQyg9TylbQ0BIXTJDbClbQ0hdM1tDSDJdTihbQ0gyXTMpW0NIMl1bQ0BASF0oQyg9TylbQ0gyXTQpW0NIMl1bQ0BdKEYpKFtDSDJdNSlbQ0BAXTQ1W09IXQ==

>  <s_glide_docking_method>  (1) 
confgen

>  <s_i_glide_gridfile>  (1) 
gpcr_drd2_6luq_protein_autoprepared_prepared

>  <s_lp_Force_Field>  (1) 
S-OPLS

>  <s_lp_Variant>  (1) 
DiffSBDD_94-2

>  <s_m_source_file>  (1) 
generated_generic_title2_ligand_DiffSBDD_2026-06-23_prepared.sdf

>  <GenAI_Model>  (1) 
DiffSBDD

>  <Protein>  (1) 
generic_title2

$$$$
DiffSBDD_63
     RDKit          3D

  0  0  0  0  0  0  0  0  0  0999 V3000
M  V30 BEGIN CTAB
M  V30 COUNTS 47 48 0 0 1
M  V30 BEGIN ATOM
M  V30 1 C 5.530552 7.001729 -17.582494 0
M  V30 2 C 6.851472 5.727460 -15.439927 0
M  V30 3 C 10.524828 7.822222 -6.319184 0
M  V30 4 C 10.058188 6.645688 -5.814745 0
M  V30 5 C 6.030250 6.851788 -15.198256 0
M  V30 6 C 9.197080 5.647773 -10.166898 0
M  V30 7 C 12.791510 8.655983 -3.485061 0
M  V30 8 F 4.892575 7.607771 -18.610626 0
M  V30 9 C 7.987904 5.765019 -12.214062 0
M  V30 10 C 9.385164 7.596266 -8.540737 0
M  V30 11 C 11.413259 8.670301 -5.517325 0
M  V30 12 O 11.830174 9.776055 -5.866812 0
M  V30 13 N 8.276531 5.952911 -13.427385 0
M  V30 14 C 5.791478 5.431028 -10.970127 0
M  V30 15 S 12.175514 8.790495 -1.804780 0
M  V30 16 C 5.372143 7.487375 -16.269912 0
M  V30 17 F 7.798484 4.172039 -17.002202 0
M  V30 18 C 6.351501 5.886282 -17.826978 0
M  V30 19 S 6.318902 4.101058 -13.301788 0
M  V30 20 C 6.934961 4.784230 -11.762782 0 CFG=1
M  V30 21 O 8.596073 6.441358 -11.185129 0
M  V30 22 C 10.140977 6.519583 -9.326277 0
M  V30 23 N 10.219114 8.287166 -7.584343 0
M  V30 24 N 11.775550 8.092644 -4.360535 0
M  V30 25 C 7.552168 5.027747 -14.280183 0 CFG=1
M  V30 26 C 7.012602 5.248241 -16.760197 0
M  V30 27 H 5.903428 7.222677 -14.190778 0
M  V30 28 H 8.437827 5.208404 -9.517500 0
M  V30 29 H 9.769709 4.827818 -10.606800 0
M  V30 30 H 13.608885 7.939194 -3.469954 0
M  V30 31 H 13.197192 9.612765 -3.815611 0
M  V30 32 H 8.975718 8.339485 -9.223724 0
M  V30 33 H 8.573688 7.146374 -7.985298 0
M  V30 34 H 6.127960 5.744216 -9.985184 0
M  V30 35 H 4.976782 4.725363 -10.814821 0
M  V30 36 H 5.384830 6.304632 -11.481408 0
M  V30 37 H 13.043980 9.743010 -1.428362 0
M  V30 38 H 4.742629 8.346007 -16.084941 0
M  V30 39 H 6.472010 5.517582 -18.834519 0
M  V30 40 H 7.394976 3.980386 -11.194124 0
M  V30 41 H 10.899415 6.981147 -9.959431 0
M  V30 42 H 10.668138 5.873641 -8.625508 0
M  V30 43 H 11.400499 7.186645 -4.126781 0
M  V30 44 H 8.267911 4.301566 -14.667321 0
M  V30 45 H 9.409606 6.010554 -6.398520 0
M  V30 46 H 10.312701 6.303294 -4.824296 0
M  V30 47 H 10.608790 9.172791 -7.876767 0
M  V30 END ATOM
M  V30 BEGIN BOND
M  V30 1 2 4 3
M  V30 2 1 5 2
M  V30 3 1 8 1
M  V30 4 1 11 3
M  V30 5 2 12 11
M  V30 6 2 13 9
M  V30 7 1 15 7
M  V30 8 1 16 1
M  V30 9 2 16 5
M  V30 10 2 18 1
M  V30 11 1 20 9
M  V30 12 1 20 14
M  V30 13 1 20 19
M  V30 14 1 21 6
M  V30 15 1 21 9
M  V30 16 1 22 6
M  V30 17 1 22 10
M  V30 18 1 23 3
M  V30 19 1 23 10
M  V30 20 1 24 7
M  V30 21 1 24 11
M  V30 22 1 25 2
M  V30 23 1 25 13
M  V30 24 1 25 19
M  V30 25 2 26 2
M  V30 26 1 26 17
M  V30 27 1 26 18
M  V30 28 1 27 5
M  V30 29 1 28 6
M  V30 30 1 29 6
M  V30 31 1 30 7
M  V30 32 1 31 7
M  V30 33 1 32 10
M  V30 34 1 33 10
M  V30 35 1 34 14
M  V30 36 1 35 14
M  V30 37 1 36 14
M  V30 38 1 37 15
M  V30 39 1 38 16
M  V30 40 1 39 18
M  V30 41 1 20 40 CFG=1
M  V30 42 1 41 22
M  V30 43 1 42 22
M  V30 44 1 43 24
M  V30 45 1 25 44 CFG=3
M  V30 46 1 45 4
M  V30 47 1 46 4
M  V30 48 1 47 23
M  V30 END BOND
M  V30 END CTAB
M  END
>  <i_epik_Tot_Q>  (1) 
0

>  <i_epik_Tot_abs_Q>  (1) 
0

>  <i_i_glide_confnum>  (1) 
41

>  <i_i_glide_lignum>  (1) 
100

>  <i_i_glide_posenum>  (1) 
113

>  <i_i_glide_rotatable_bonds>  (1) 
11

>  <i_lp_mmshare_version>  (1) 
72125

>  <i_m_source_file_index>  (1) 
64

>  <i_f3d_flags>  (1) 
0

>  <num_sample>  (1) 
100

>  <b_lp_Chiralities_Consistent>  (1) 
1

>  <r_epik_Charging_Adjusted_Penalty>  (1) 
0.013849271164821807

>  <r_epik_Ionization_Penalty>  (1) 
0.12391676861929035

>  <r_epik_Ionization_Penalty_Charging>  (1) 
0.013849271164821807

>  <r_epik_Ionization_Penalty_Neutral>  (1) 
0.11006749745446855

>  <r_epik_State_Penalty>  (1) 
-0

>  <r_glide_ring_energy>  (1) 
0

>  <r_i_docking_score>  (1) 
-6.3335057660192682

>  <r_i_glide_ecoul>  (1) 
-3.4910768274344788

>  <r_i_glide_eff_state_penalty>  (1) 
-0

>  <r_i_glide_einternal>  (1) 
7.7208025205071849

>  <r_i_glide_emodel>  (1) 
-57.684521508669718

>  <r_i_glide_emodel_strain>  (1) 
0.30762825308282871

>  <r_i_glide_energy>  (1) 
-45.330781280061956

>  <r_i_glide_erotb>  (1) 
1.2167697096945405

>  <r_i_glide_esite>  (1) 
-0.028594232603125394

>  <r_i_glide_evdw>  (1) 
-41.83970445262748

>  <r_i_glide_gscore>  (1) 
-6.3335057660192682

>  <r_i_glide_gscore_strain>  (1) 
0

>  <r_i_glide_hbond>  (1) 
-0.32000000000000001

>  <r_i_glide_ligand_efficiency>  (1) 
-0.24359637561612571

>  <r_i_glide_ligand_efficiency_ln>  (1) 
-1.4874030472221567

>  <r_i_glide_ligand_efficiency_sa>  (1) 
-0.72165330504105762

>  <r_i_glide_lipo>  (1) 
-2.2794496365656656

>  <r_i_glide_metal>  (1) 
-0

>  <r_i_glide_rewards>  (1) 
-2.3065848597984719

>  <r_lp_Energy>  (1) 
18.833002999999998

>  <r_lp_tautomer_probability>  (1) 
1

>  <s_epik_Chemistry_Notes>  (1) 
This compound has an imine and may undergo hydrolysis. This compound contains an acetal/aminal-like group ( X-CH(R)-Y where X, Y are N, S, or O) that may be acid/base labile, releasing an aldehyde.

>  <s_epik_cmdline>  (1) 
J2VwaWtfcHl0aG9uJywgJy1waHQnLCAnMS4wJywgJy1waCcsICc3LjQnLCAnLXRuJywgJzgnLCAnLW1hJywgJzUwMCcsICctaW1hZScsICc8aW5maWxlLm1hZT4nLCAnLW9tYWUnLCAnPG91dGZpbGUubWFlPic=

>  <s_epik_input>  (1) 
RmMxW2NIXVtjSF1jKGMoRilbY0hdMSlbQ0BIXShTW0NAQEhdMltDSDNdKU49QzJPW0NIMl1bQ0gyXVtDSDJdW05IXUMoPVtDSDJdKUMoPU8pW05IXVtDSDJdW1NIXQ==

>  <s_glide_docking_method>  (1) 
confgen

>  <s_i_glide_gridfile>  (1) 
gpcr_drd2_6luq_protein_autoprepared_prepared

>  <s_lp_Force_Field>  (1) 
S-OPLS

>  <s_lp_Variant>  (1) 
DiffSBDD_63-1

>  <s_m_source_file>  (1) 
generated_generic_title2_ligand_DiffSBDD_2026-06-23_prepared.sdf

>  <GenAI_Model>  (1) 
DiffSBDD

>  <Protein>  (1) 
generic_title2

$$$$
DiffSBDD_83
     RDKit          3D

  0  0  0  0  0  0  0  0  0  0999 V3000
M  V30 BEGIN CTAB
M  V30 COUNTS 45 47 0 0 1
M  V30 BEGIN ATOM
M  V30 1 C 6.758105 6.783938 -14.624260 0
M  V30 2 C 11.926474 9.057283 -4.637050 0
M  V30 3 C 11.121956 6.774358 -4.917003 0
M  V30 4 C 9.562599 6.369002 -8.265413 0
M  V30 5 F 11.576245 10.650683 -6.385018 0
M  V30 6 C 11.775410 7.750369 -4.142185 0
M  V30 7 C 10.771165 8.416936 -6.690814 0
M  V30 8 C 7.248035 5.346882 -12.910759 0 CFG=1
M  V30 9 C 11.425827 9.392132 -5.910005 0
M  V30 10 N 5.998631 5.827162 -14.918310 0
M  V30 11 N 7.166743 5.590227 -10.385021 0 CFG=1 CHG=1
M  V30 12 C 7.767318 6.645682 -13.536826 0 CFG=2
M  V30 13 C 10.618659 7.098405 -6.192565 0
M  V30 14 C 7.901437 7.890806 -12.624797 0
M  V30 15 C 6.111921 4.597839 -10.606093 0
M  V30 16 O 9.986043 6.120999 -6.933385 0
M  V30 17 C 9.034026 5.035158 -8.817202 0
M  V30 18 F 12.557139 9.990227 -3.891035 0
M  V30 19 C 7.151239 3.659934 -14.823433 0
M  V30 20 C 8.560067 5.083800 -10.278764 0
M  V30 21 C 6.438420 5.610064 -11.650996 0 CFG=2
M  V30 22 C 6.370131 4.731612 -14.037171 0 CFG=1
M  V30 23 H 6.722986 7.750386 -15.134822 0
M  V30 24 H 11.006962 5.771330 -4.532908 0
M  V30 25 H 10.398119 6.716065 -8.874873 0
M  V30 26 H 8.786222 7.130260 -8.272482 0
M  V30 27 H 12.160548 7.495198 -3.165914 0
M  V30 28 H 10.390496 8.681798 -7.664768 0
M  V30 29 H 8.071984 4.665366 -12.709381 0
M  V30 30 H 8.175412 8.778783 -13.185026 0
M  V30 31 H 6.977591 8.153528 -12.111966 0
M  V30 32 H 8.666891 7.745848 -11.863774 0
M  V30 33 H 5.237125 4.759495 -9.986317 0
M  V30 34 H 6.487265 3.590228 -10.704614 0
M  V30 35 H 8.237915 4.652870 -8.175836 0
M  V30 36 H 9.843497 4.308352 -8.751143 0
M  V30 37 H 7.411617 2.818990 -14.180563 0
M  V30 38 H 6.575413 3.261782 -15.655627 0
M  V30 39 H 8.080111 4.059569 -15.232735 0
M  V30 40 H 8.642185 4.077993 -10.692611 0
M  V30 41 H 9.233867 5.711324 -10.861799 0
M  V30 42 H 5.721533 6.427242 -11.698752 0
M  V30 43 H 5.471331 4.273569 -13.620158 0
M  V30 44 H 6.975411 6.488819 -9.903971 0
M  V30 45 H 8.722018 6.390224 -13.985933 0
M  V30 END ATOM
M  V30 BEGIN BOND
M  V30 1 1 6 2
M  V30 2 2 6 3
M  V30 3 2 9 2
M  V30 4 1 9 5
M  V30 5 1 9 7
M  V30 6 2 10 1
M  V30 7 1 12 1
M  V30 8 1 12 8
M  V30 9 1 13 3
M  V30 10 2 13 7
M  V30 11 1 14 12
M  V30 12 1 15 11
M  V30 13 1 16 4
M  V30 14 1 16 13
M  V30 15 1 17 4
M  V30 16 1 18 2
M  V30 17 1 20 11
M  V30 18 1 20 17
M  V30 19 1 21 8
M  V30 20 1 21 11
M  V30 21 1 21 15
M  V30 22 1 22 8
M  V30 23 1 22 10
M  V30 24 1 22 19
M  V30 25 1 23 1
M  V30 26 1 24 3
M  V30 27 1 25 4
M  V30 28 1 26 4
M  V30 29 1 27 6
M  V30 30 1 28 7
M  V30 31 1 8 29 CFG=1
M  V30 32 1 30 14
M  V30 33 1 31 14
M  V30 34 1 32 14
M  V30 35 1 33 15
M  V30 36 1 34 15
M  V30 37 1 35 17
M  V30 38 1 36 17
M  V30 39 1 37 19
M  V30 40 1 38 19
M  V30 41 1 39 19
M  V30 42 1 40 20
M  V30 43 1 41 20
M  V30 44 1 21 42 CFG=3
M  V30 45 1 22 43 CFG=1
M  V30 46 1 11 44 CFG=1
M  V30 47 1 12 45 CFG=3
M  V30 END BOND
M  V30 END CTAB
M  END
>  <i_epik_Tot_Q>  (1) 
1

>  <i_epik_Tot_abs_Q>  (1) 
1

>  <i_i_glide_confnum>  (1) 
139

>  <i_i_glide_lignum>  (1) 
147

>  <i_i_glide_posenum>  (1) 
130

>  <i_i_glide_rotatable_bonds>  (1) 
6

>  <i_lp_mmshare_version>  (1) 
72125

>  <i_m_source_file_index>  (1) 
84

>  <i_f3d_flags>  (1) 
0

>  <num_sample>  (1) 
100

>  <b_lp_Chiralities_Consistent>  (1) 
1

>  <r_epik_Charging_Adjusted_Penalty>  (1) 
0.43105765877043739

>  <r_epik_Ionization_Penalty>  (1) 
0.36079924242796862

>  <r_epik_Ionization_Penalty_Charging>  (1) 
0.10499320228047652

>  <r_epik_Ionization_Penalty_Neutral>  (1) 
0.25580604014749209

>  <r_epik_State_Penalty>  (1) 
0.32606445648996085

>  <r_glide_ring_energy>  (1) 
0

>  <r_i_docking_score>  (1) 
-6.3220161891996263

>  <r_i_glide_ecoul>  (1) 
-9.9143893733616686

>  <r_i_glide_eff_state_penalty>  (1) 
0.32606445648996085

>  <r_i_glide_einternal>  (1) 
4.5710924666663519

>  <r_i_glide_emodel>  (1) 
-52.995407895614655

>  <r_i_glide_emodel_strain>  (1) 
0.1593226735811939

>  <r_i_glide_energy>  (1) 
-35.807421775029454

>  <r_i_glide_erotb>  (1) 
0.96718860002963114

>  <r_i_glide_esite>  (1) 
-0.10000000000000001

>  <r_i_glide_evdw>  (1) 
-25.893032401667785

>  <r_i_glide_gscore>  (1) 
-6.6480806456895873

>  <r_i_glide_gscore_strain>  (1) 
0

>  <r_i_glide_hbond>  (1) 
-0.1477643604564905

>  <r_i_glide_ligand_efficiency>  (1) 
-0.28736437223634664

>  <r_i_glide_ligand_efficiency_ln>  (1) 
-1.5453313577838614

>  <r_i_glide_ligand_efficiency_sa>  (1) 
-0.80520627323533833

>  <r_i_glide_lipo>  (1) 
-1.9158065849993555

>  <r_i_glide_metal>  (1) 
-0

>  <r_i_glide_rewards>  (1) 
-2.6698882741757326

>  <r_lp_Energy>  (1) 
26.820309999999999

>  <r_lp_tautomer_probability>  (1) 
0.99998600000000004

>  <s_epik_Chemistry_Notes>  (1) 
This compound has an imine and may undergo hydrolysis.

>  <s_epik_cmdline>  (1) 
J2VwaWtfcHl0aG9uJywgJy1waHQnLCAnMS4wJywgJy1waCcsICc3LjQnLCAnLXRuJywgJzgnLCAnLW1hJywgJzUwMCcsICctaW1hZScsICc8aW5maWxlLm1hZT4nLCAnLW9tYWUnLCAnPG91dGZpbGUubWFlPic=

>  <s_epik_input>  (1) 
W0NIM11bQ0BASF0xTj1bQ0hdW0NAQEhdKFtDSDNdKVtDQEhdMVtDQEhdMltDSDJdTjJbQ0gyXVtDSDJdW0NIMl1PYyhbY0hdYzNGKVtjSF1bY0hdYzNG

>  <s_glide_docking_method>  (1) 
confgen

>  <s_i_glide_gridfile>  (1) 
gpcr_drd2_6luq_protein_autoprepared_prepared

>  <s_lp_Force_Field>  (1) 
S-OPLS

>  <s_lp_Variant>  (1) 
DiffSBDD_83-1

>  <s_m_source_file>  (1) 
generated_generic_title2_ligand_DiffSBDD_2026-06-23_prepared.sdf

>  <GenAI_Model>  (1) 
DiffSBDD

>  <Protein>  (1) 
generic_title2

$$$$
DiffSBDD_14
     RDKit          3D

  0  0  0  0  0  0  0  0  0  0999 V3000
M  V30 BEGIN CTAB
M  V30 COUNTS 46 47 0 0 1
M  V30 BEGIN ATOM
M  V30 1 N 9.375305 7.266530 -11.275602 0
M  V30 2 C 5.737231 5.948683 -11.772838 0
M  V30 3 N 6.433349 7.210575 -11.985030 0
M  V30 4 C 10.910478 9.212039 -5.969194 0
M  V30 5 C 8.712851 6.281390 -11.995435 0
M  V30 6 C 5.890414 5.166703 -13.091063 0
M  V30 7 C 10.583446 7.851859 -9.219015 0
M  V30 8 C 6.165489 6.848763 -14.952288 0
M  V30 9 C 11.557286 9.086948 -4.725106 0
M  V30 10 C 10.473914 8.063032 -6.658050 0
M  V30 11 C 11.775689 7.807733 -4.164045 0
M  V30 12 C 11.356043 6.656700 -4.872710 0
M  V30 13 C 10.705687 6.789181 -6.112033 0
M  V30 14 C 9.845719 6.908954 -10.149058 0
M  V30 15 O 8.879528 5.058624 -11.919316 0
M  V30 16 C 7.859867 5.037865 -14.736926 0
M  V30 17 C 9.736669 8.193667 -7.979402 0
M  V30 18 N 12.574268 8.703213 -1.962254 0
M  V30 19 N 12.403441 7.688941 -2.905300 0
M  V30 20 C 7.566510 6.872506 -12.856155 0 CFG=1
M  V30 21 C 6.911092 5.957229 -13.929672 0
M  V30 22 O 12.405189 6.395363 -2.365257 0
M  V30 23 H 6.209982 5.410280 -10.949267 0
M  V30 24 H 4.704164 6.123005 -11.479118 0
M  V30 25 H 6.719083 7.590074 -11.067555 0
M  V30 26 H 10.737310 10.190686 -6.385116 0
M  V30 27 H 6.240766 4.156720 -12.874088 0
M  V30 28 H 4.939163 5.061420 -13.611828 0
M  V30 29 H 10.880570 8.761339 -9.743465 0
M  V30 30 H 11.505314 7.353710 -8.919150 0
M  V30 31 H 5.437209 7.502562 -14.471206 0
M  V30 32 H 6.856849 7.486646 -15.502822 0
M  V30 33 H 5.616927 6.249942 -15.679749 0
M  V30 34 H 11.877288 9.972045 -4.196449 0
M  V30 35 H 11.519648 5.671429 -4.463056 0
M  V30 36 H 10.373756 5.908100 -6.640947 0
M  V30 37 H 9.744897 5.885547 -9.771388 0
M  V30 38 H 8.280807 4.228975 -14.141662 0
M  V30 39 H 7.328861 4.556851 -15.559267 0
M  V30 40 H 8.689925 5.595273 -15.169407 0
M  V30 41 H 8.885988 7.514933 -7.901627 0
M  V30 42 H 9.289695 9.179603 -8.082437 0
M  V30 43 H 13.160849 8.356769 -1.205952 0
M  V30 44 H 13.049462 9.494478 -2.393122 0
M  V30 45 H 7.947102 7.784810 -13.317525 0
M  V30 46 H 11.515673 6.223123 -2.091954 0
M  V30 END ATOM
M  V30 BEGIN BOND
M  V30 1 1 3 2
M  V30 2 1 5 1
M  V30 3 1 6 2
M  V30 4 2 9 4
M  V30 5 1 10 4
M  V30 6 1 11 9
M  V30 7 2 12 11
M  V30 8 2 13 10
M  V30 9 1 13 12
M  V30 10 2 14 1
M  V30 11 1 14 7
M  V30 12 2 15 5
M  V30 13 1 17 7
M  V30 14 1 17 10
M  V30 15 1 19 11
M  V30 16 1 19 18
M  V30 17 1 20 3
M  V30 18 1 20 5
M  V30 19 1 21 6
M  V30 20 1 21 8
M  V30 21 1 21 16
M  V30 22 1 21 20
M  V30 23 1 22 19
M  V30 24 1 23 2
M  V30 25 1 24 2
M  V30 26 1 25 3
M  V30 27 1 26 4
M  V30 28 1 27 6
M  V30 29 1 28 6
M  V30 30 1 29 7
M  V30 31 1 30 7
M  V30 32 1 31 8
M  V30 33 1 32 8
M  V30 34 1 33 8
M  V30 35 1 34 9
M  V30 36 1 35 12
M  V30 37 1 36 13
M  V30 38 1 37 14
M  V30 39 1 38 16
M  V30 40 1 39 16
M  V30 41 1 40 16
M  V30 42 1 41 17
M  V30 43 1 42 17
M  V30 44 1 43 18
M  V30 45 1 44 18
M  V30 46 1 20 45 CFG=3
M  V30 47 1 46 22
M  V30 END BOND
M  V30 END CTAB
M  END
>  <i_epik_Tot_Q>  (1) 
0

>  <i_epik_Tot_abs_Q>  (1) 
0

>  <i_i_glide_confnum>  (1) 
412

>  <i_i_glide_lignum>  (1) 
26

>  <i_i_glide_posenum>  (1) 
304

>  <i_i_glide_rotatable_bonds>  (1) 
7

>  <i_lp_mmshare_version>  (1) 
72125

>  <i_m_source_file_index>  (1) 
15

>  <i_f3d_flags>  (1) 
0

>  <num_sample>  (1) 
100

>  <b_lp_Chiralities_Consistent>  (1) 
1

>  <r_epik_Charging_Adjusted_Penalty>  (1) 
0.22580691505965048

>  <r_epik_Ionization_Penalty>  (1) 
0.22909364713476901

>  <r_epik_Ionization_Penalty_Charging>  (1) 
0

>  <r_epik_Ionization_Penalty_Neutral>  (1) 
0.22909364713476901

>  <r_epik_State_Penalty>  (1) 
0.22580691505965048

>  <r_glide_ring_energy>  (1) 
1.0308310200018396

>  <r_i_docking_score>  (1) 
-6.3205884843430864

>  <r_i_glide_ecoul>  (1) 
-5.3691442419994093

>  <r_i_glide_eff_state_penalty>  (1) 
0.22580691505965048

>  <r_i_glide_einternal>  (1) 
5.0098166251584182

>  <r_i_glide_emodel>  (1) 
-55.976041020528015

>  <r_i_glide_emodel_strain>  (1) 
1.1879090676940649

>  <r_i_glide_energy>  (1) 
-43.915090046998131

>  <r_i_glide_erotb>  (1) 
1.1941897600298523

>  <r_i_glide_esite>  (1) 
-0.10149336658233366

>  <r_i_glide_evdw>  (1) 
-38.545945804998723

>  <r_i_glide_gscore>  (1) 
-6.5463953994027371

>  <r_i_glide_gscore_strain>  (1) 
0

>  <r_i_glide_hbond>  (1) 
-0.26374638849565057

>  <r_i_glide_ligand_efficiency>  (1) 
-0.28729947656104937

>  <r_i_glide_ligand_efficiency_ln>  (1) 
-1.5449823746401232

>  <r_i_glide_ligand_efficiency_sa>  (1) 
-0.80502443300076598

>  <r_i_glide_lipo>  (1) 
-2.0946649001346542

>  <r_i_glide_metal>  (1) 
-0

>  <r_i_glide_rewards>  (1) 
-2.5480115776701013

>  <r_lp_Energy>  (1) 
30.755288999999998

>  <s_epik_Chemistry_Notes>  (1) 
This compound has an imine and may undergo hydrolysis. This compound has a N-S or N-O group and may undergo hydrolysis at high or low pH.

>  <s_epik_cmdline>  (1) 
J2VwaWtfcHl0aG9uJywgJy1waHQnLCAnMS4wJywgJy1waCcsICc3LjQnLCAnLXRuJywgJzgnLCAnLW1hJywgJzUwMCcsICctaW1hZScsICc8aW5maWxlLm1hZT4nLCAnLW9tYWUnLCAnPG91dGZpbGUubWFlPic=

>  <s_epik_input>  (1) 
W0NIM11DMShbQ0gzXSlbQ0gyXVtDSDJdW05IXVtDQEhdMUMoPU8pL049W0NIXS9bQ0gyXVtDSDJdYzJbY0hdW2NIXWMoW2NIXVtjSF0yKU4oW05IMl0pW09IXQ==

>  <s_glide_docking_method>  (1) 
confgen

>  <s_i_glide_gridfile>  (1) 
gpcr_drd2_6luq_protein_autoprepared_prepared

>  <s_lp_Force_Field>  (1) 
S-OPLS

>  <s_lp_Variant>  (1) 
DiffSBDD_14-1

>  <s_m_source_file>  (1) 
generated_generic_title2_ligand_DiffSBDD_2026-06-23_prepared.sdf

>  <GenAI_Model>  (1) 
DiffSBDD

>  <Protein>  (1) 
generic_title2

$$$$
DiffSBDD_89
     RDKit          3D

  0  0  0  0  0  0  0  0  0  0999 V3000
M  V30 BEGIN CTAB
M  V30 COUNTS 79 82 0 0 1
M  V30 BEGIN ATOM
M  V30 1 C 11.234359 7.538499 -5.322310 0
M  V30 2 O 7.764798 2.393465 -18.688536 0
M  V30 3 C 5.868240 -0.664844 -15.914338 0
M  V30 4 C 9.176236 2.949601 -16.844568 0
M  V30 5 C 7.959517 2.331583 -17.475151 0
M  V30 6 C 6.968422 1.632269 -16.532682 0 CFG=1
M  V30 7 F 11.373349 10.267834 -4.425969 0
M  V30 8 C 9.575665 5.340835 -7.862159 0
M  V30 9 C 10.384667 6.136004 -12.193109 0
M  V30 10 C 10.206580 8.790020 -10.196706 0
M  V30 11 F 13.344129 9.590226 -5.042700 0
M  V30 12 F 12.175408 10.906713 -6.324876 0
M  V30 13 C 8.386669 -0.528455 -16.216973 0
M  V30 14 C 7.717518 3.973750 -13.467952 0 CFG=2
M  V30 15 C 10.446184 7.603984 -8.019103 0
M  V30 16 N 7.724949 3.347737 -14.817391 0
M  V30 17 C 5.312896 7.376024 -16.120306 0
M  V30 18 C 7.027051 0.060155 -16.639025 0
M  V30 19 O 11.652928 7.479833 -4.019478 0
M  V30 20 C 9.481002 6.535138 -9.957453 0
M  V30 21 C 10.054031 7.620209 -9.362608 0
M  V30 22 C 9.158560 6.680719 -11.425021 0 CFG=1
M  V30 23 C 11.075423 8.720664 -7.438941 0
M  V30 24 C 11.461637 8.692428 -6.089681 0
M  V30 25 C 9.235041 5.371346 -9.223715 0
M  V30 26 C 6.976696 2.220484 -15.069934 0
M  V30 27 O 6.305633 1.673472 -14.192621 0
M  V30 28 C 7.603658 5.560105 -13.419991 0 CFG=1
M  V30 29 C 8.869394 3.326466 -12.690079 0
M  V30 30 C 10.589963 6.437233 -5.895759 0
M  V30 31 C 12.118118 9.896449 -5.465276 0
M  V30 32 C 6.283309 6.085263 -14.099986 0 CFG=2
M  V30 33 F 5.260191 5.274610 -13.837618 0
M  V30 34 O 6.828188 -0.320975 -17.990451 0
M  V30 35 C 8.642388 3.940586 -15.818691 0
M  V30 36 C 9.344412 8.278326 -11.434526 0
M  V30 37 C 7.723530 6.199515 -11.969527 0 CFG=1
M  V30 38 C 6.747594 5.500577 -10.990140 0
M  V30 39 C 6.339612 6.355147 -15.614393 0
M  V30 40 C 10.202055 6.461146 -7.254592 0
M  V30 41 H 6.012796 -0.698460 -14.834586 0
M  V30 42 H 4.907341 -0.185443 -16.106251 0
M  V30 43 H 5.776198 -1.703923 -16.235005 0
M  V30 44 H 9.775460 2.165577 -16.385034 0
M  V30 45 H 9.788495 3.446758 -17.597925 0
M  V30 46 H 5.994954 1.918258 -16.925088 0
M  V30 47 H 9.375381 4.464108 -7.295047 0
M  V30 48 H 10.327048 6.241238 -13.268993 0
M  V30 49 H 11.292684 6.666616 -11.903877 0
M  V30 50 H 10.575416 5.096818 -11.965088 0
M  V30 51 H 9.747490 9.590229 -9.603006 0
M  V30 52 H 11.266442 8.962155 -10.387294 0
M  V30 53 H 8.575406 -0.356881 -15.156753 0
M  V30 54 H 8.423116 -1.605259 -16.385022 0
M  V30 55 H 9.212857 -0.102507 -16.785069 0
M  V30 56 H 6.822977 3.636228 -12.944823 0
M  V30 57 H 5.478891 7.597717 -17.175197 0
M  V30 58 H 4.299126 6.994280 -16.028359 0
M  V30 59 H 5.376797 8.319561 -15.576701 0
M  V30 60 H 12.086038 8.266383 -3.720591 0
M  V30 61 H 11.272687 9.590229 -8.031113 0
M  V30 62 H 8.786179 4.512719 -9.686546 0
M  V30 63 H 8.405082 5.985986 -14.013774 0
M  V30 64 H 8.897469 3.618672 -11.646081 0
M  V30 65 H 8.796807 2.238160 -12.704157 0
M  V30 66 H 9.812661 3.590246 -13.151805 0
M  V30 67 H 10.405844 5.590223 -5.296305 0
M  V30 68 H 5.983077 7.034221 -13.656583 0
M  V30 69 H 5.974549 -0.027572 -18.271248 0
M  V30 70 H 8.177954 4.750463 -16.365802 0
M  V30 71 H 9.496368 4.390244 -15.311595 0
M  V30 72 H 9.705565 8.660198 -12.385057 0
M  V30 73 H 8.370362 8.747659 -11.290243 0
M  V30 74 H 7.228753 7.162943 -12.047369 0
M  V30 75 H 6.975995 4.452484 -10.815467 0
M  V30 76 H 6.714392 5.988017 -10.023038 0
M  V30 77 H 5.726398 5.534150 -11.367168 0
M  V30 78 H 7.325166 6.737568 -15.868792 0
M  V30 79 H 6.185987 5.426780 -16.161679 0
M  V30 END ATOM
M  V30 BEGIN BOND
M  V30 1 2 5 2
M  V30 2 1 5 4
M  V30 3 1 6 5
M  V30 4 1 16 14
M  V30 5 1 18 3
M  V30 6 1 18 6
M  V30 7 1 18 13
M  V30 8 1 19 1
M  V30 9 1 21 10
M  V30 10 1 21 15
M  V30 11 2 21 20
M  V30 12 1 22 9 CFG=3
M  V30 13 1 22 20
M  V30 14 2 23 15
M  V30 15 2 24 1
M  V30 16 1 24 23
M  V30 17 2 25 8
M  V30 18 1 25 20
M  V30 19 1 26 6
M  V30 20 1 26 16
M  V30 21 2 27 26
M  V30 22 1 28 14
M  V30 23 1 29 14
M  V30 24 1 30 1
M  V30 25 1 31 7
M  V30 26 1 31 11
M  V30 27 1 31 12
M  V30 28 1 31 24
M  V30 29 1 32 28
M  V30 30 1 33 32
M  V30 31 1 34 18
M  V30 32 1 35 4
M  V30 33 1 35 16
M  V30 34 1 36 10
M  V30 35 1 36 22
M  V30 36 1 37 22
M  V30 37 1 37 28
M  V30 38 1 38 37
M  V30 39 1 39 17
M  V30 40 1 39 32
M  V30 41 1 40 8
M  V30 42 1 40 15
M  V30 43 2 40 30
M  V30 44 1 41 3
M  V30 45 1 42 3
M  V30 46 1 43 3
M  V30 47 1 44 4
M  V30 48 1 45 4
M  V30 49 1 6 46 CFG=3
M  V30 50 1 47 8
M  V30 51 1 48 9
M  V30 52 1 49 9
M  V30 53 1 50 9
M  V30 54 1 51 10
M  V30 55 1 52 10
M  V30 56 1 53 13
M  V30 57 1 54 13
M  V30 58 1 55 13
M  V30 59 1 14 56 CFG=1
M  V30 60 1 57 17
M  V30 61 1 58 17
M  V30 62 1 59 17
M  V30 63 1 60 19
M  V30 64 1 61 23
M  V30 65 1 62 25
M  V30 66 1 28 63 CFG=3
M  V30 67 1 64 29
M  V30 68 1 65 29
M  V30 69 1 66 29
M  V30 70 1 67 30
M  V30 71 1 32 68 CFG=1
M  V30 72 1 69 34
M  V30 73 1 70 35
M  V30 74 1 71 35
M  V30 75 1 72 36
M  V30 76 1 73 36
M  V30 77 1 37 74 CFG=3
M  V30 78 1 75 38
M  V30 79 1 76 38
M  V30 80 1 77 38
M  V30 81 1 78 39
M  V30 82 1 79 39
M  V30 END BOND
M  V30 END CTAB
M  END
>  <i_epik_Tot_Q>  (1) 
0

>  <i_epik_Tot_abs_Q>  (1) 
0

>  <i_i_glide_confnum>  (1) 
450

>  <i_i_glide_lignum>  (1) 
164

>  <i_i_glide_posenum>  (1) 
336

>  <i_i_glide_rotatable_bonds>  (1) 
10

>  <i_lp_mmshare_version>  (1) 
72125

>  <i_m_source_file_index>  (1) 
90

>  <i_f3d_flags>  (1) 
0

>  <num_sample>  (1) 
100

>  <b_lp_Chiralities_Consistent>  (1) 
1

>  <r_epik_Charging_Adjusted_Penalty>  (1) 
0

>  <r_epik_Ionization_Penalty>  (1) 
0.063976020685543381

>  <r_epik_Ionization_Penalty_Charging>  (1) 
0

>  <r_epik_Ionization_Penalty_Neutral>  (1) 
0.063976020685543381

>  <r_epik_State_Penalty>  (1) 
-0

>  <r_glide_ring_energy>  (1) 
0

>  <r_i_docking_score>  (1) 
-6.3185085916128578

>  <r_i_glide_ecoul>  (1) 
-0.6640648714706977

>  <r_i_glide_eff_state_penalty>  (1) 
-0

>  <r_i_glide_einternal>  (1) 
24.355719337118849

>  <r_i_glide_emodel>  (1) 
-24.598292355307326

>  <r_i_glide_emodel_strain>  (1) 
0.89753806566790217

>  <r_i_glide_energy>  (1) 
-25.577841955675542

>  <r_i_glide_erotb>  (1) 
0.30496708774431369

>  <r_i_glide_esite>  (1) 
0

>  <r_i_glide_evdw>  (1) 
-24.913777084204845

>  <r_i_glide_gscore>  (1) 
-6.3185085916128578

>  <r_i_glide_gscore_strain>  (1) 
0

>  <r_i_glide_hbond>  (1) 
0

>  <r_i_glide_ligand_efficiency>  (1) 
-0.15796271479032145

>  <r_i_glide_ligand_efficiency_ln>  (1) 
-1.3475519371838651

>  <r_i_glide_ligand_efficiency_sa>  (1) 
-0.54022488552640213

>  <r_i_glide_lipo>  (1) 
-2.8772734787705234

>  <r_i_glide_metal>  (1) 
-0

>  <r_i_glide_rewards>  (1) 
-2.4009036156557997

>  <r_lp_Energy>  (1) 
57.567276

>  <r_lp_tautomer_probability>  (1) 
1

>  <s_epik_cmdline>  (1) 
J2VwaWtfcHl0aG9uJywgJy1waHQnLCAnMS4wJywgJy1waCcsICc3LjQnLCAnLXRuJywgJzgnLCAnLW1hJywgJzUwMCcsICctaW1hZScsICc8aW5maWxlLm1hZT4nLCAnLW9tYWUnLCAnPG91dGZpbGUubWFlPic=

>  <s_epik_input>  (1) 
RkMoRikoRiljKFtjSF0xKWMoW09IXSlbY0hdYzJbY0hdW2NIXWMoYzNjMTIpW0NAXShbQ0gzXSkoW0NIMl1bQ0gyXTMpW0NASF0oW0NIM10pW0NASF0oW0NASF0oRilbQ0gyXVtDSDNdKVtDQEhdKFtDSDNdKU4oW0NIMl1bQ0gyXUM0PU8pQyg9TylbQ0BASF00QyhbQ0gzXSkoW0NIM10pW09IXQ==

>  <s_glide_docking_method>  (1) 
confgen

>  <s_i_glide_gridfile>  (1) 
gpcr_drd2_6luq_protein_autoprepared_prepared

>  <s_lp_Force_Field>  (1) 
S-OPLS

>  <s_lp_Variant>  (1) 
DiffSBDD_89-1

>  <s_m_source_file>  (1) 
generated_generic_title2_ligand_DiffSBDD_2026-06-23_prepared.sdf

>  <GenAI_Model>  (1) 
DiffSBDD

>  <Protein>  (1) 
generic_title2

$$$$
DiffSBDD_36
     RDKit          3D

  0  0  0  0  0  0  0  0  0  0999 V3000
M  V30 BEGIN CTAB
M  V30 COUNTS 49 51 0 0 1
M  V30 BEGIN ATOM
M  V30 1 C 8.008830 6.208862 -13.654287 0
M  V30 2 C 10.546696 7.509826 -5.800148 0
M  V30 3 N 9.080985 6.025725 -10.167998 0
M  V30 4 O 10.182247 8.791752 -9.576659 0 CHG=-1
M  V30 5 C 11.376196 9.494645 -5.320764 0
M  V30 6 O 6.451199 4.488135 -10.789721 0
M  V30 7 C 6.771271 5.503762 -11.727343 0 CFG=2
M  V30 8 C 11.851677 8.679214 -4.389484 0
M  V30 9 C 10.574116 8.779179 -6.180400 0
M  V30 10 C 9.922039 6.493245 -9.060237 0 CFG=2
M  V30 11 C 12.613369 8.326803 -2.139983 0
M  V30 12 C 5.776222 5.547268 -12.893556 0
M  V30 13 C 11.375521 6.513655 -3.237930 0
M  V30 14 C 9.769876 6.388240 -6.463166 0
M  V30 15 O 10.366781 6.331179 -12.012837 0
M  V30 16 C 9.047778 6.670682 -7.793350 0
M  V30 17 C 6.569687 5.983436 -14.130844 0
M  V30 18 C 8.553820 3.922362 -12.722804 0
M  V30 19 C 10.789359 7.723011 -9.369342 0
M  V30 20 C 9.313127 5.960623 -11.492153 0
M  V30 21 C 11.931875 7.033910 -2.120445 0
M  V30 22 O 12.033392 7.594734 -9.356421 0
M  V30 23 C 11.481996 7.176029 -4.594937 0 CFG=1
M  V30 24 C 8.180062 5.378578 -12.364495 0 CFG=1
M  V30 25 C 12.568664 9.115986 -3.227621 0
M  V30 26 H 8.732443 5.939452 -14.424029 0
M  V30 27 H 8.155373 7.270820 -13.444663 0
M  V30 28 H 8.146617 5.760158 -9.888152 0
M  V30 29 H 11.503141 10.567884 -5.336569 0
M  V30 30 H 5.780202 4.810354 -10.202345 0
M  V30 31 H 6.701251 6.454709 -11.197025 0
M  V30 32 H 10.017967 9.194015 -7.006473 0
M  V30 33 H 10.581997 5.652689 -8.866829 0
M  V30 34 H 13.126719 8.672631 -1.254061 0
M  V30 35 H 5.329360 4.567553 -13.068841 0
M  V30 36 H 4.976420 6.252876 -12.681151 0
M  V30 37 H 10.860266 5.590380 -3.195396 0
M  V30 38 H 9.055904 5.996202 -5.740232 0
M  V30 39 H 10.487611 5.592153 -6.628014 0
M  V30 40 H 8.576456 7.651915 -7.776625 0
M  V30 41 H 8.217362 5.964188 -7.850193 0
M  V30 42 H 6.545542 5.195871 -14.885139 0
M  V30 43 H 6.149704 6.879191 -14.590414 0
M  V30 44 H 7.804888 3.444754 -13.353832 0
M  V30 45 H 9.505929 3.890845 -13.251117 0
M  V30 46 H 8.670254 3.306691 -11.831457 0
M  V30 47 H 11.849554 6.489940 -1.185363 0
M  V30 48 H 12.175410 6.553113 -5.123552 0
M  V30 49 H 13.030750 10.079719 -3.208390 0
M  V30 END ATOM
M  V30 BEGIN BOND
M  V30 1 1 7 6
M  V30 2 2 8 5
M  V30 3 2 9 2
M  V30 4 1 9 5
M  V30 5 1 10 3
M  V30 6 1 12 7
M  V30 7 1 14 2
M  V30 8 1 16 10
M  V30 9 1 16 14
M  V30 10 1 17 1
M  V30 11 1 17 12
M  V30 12 1 19 4
M  V30 13 1 19 10
M  V30 14 1 20 3
M  V30 15 2 20 15
M  V30 16 1 21 11
M  V30 17 2 21 13
M  V30 18 2 22 19
M  V30 19 1 23 2
M  V30 20 1 23 8
M  V30 21 1 23 13
M  V30 22 1 24 1
M  V30 23 1 24 7
M  V30 24 1 24 18 CFG=3
M  V30 25 1 24 20
M  V30 26 1 25 8
M  V30 27 2 25 11
M  V30 28 1 26 1
M  V30 29 1 27 1
M  V30 30 1 28 3
M  V30 31 1 29 5
M  V30 32 1 30 6
M  V30 33 1 7 31 CFG=1
M  V30 34 1 32 9
M  V30 35 1 10 33 CFG=1
M  V30 36 1 34 11
M  V30 37 1 35 12
M  V30 38 1 36 12
M  V30 39 1 37 13
M  V30 40 1 38 14
M  V30 41 1 39 14
M  V30 42 1 40 16
M  V30 43 1 41 16
M  V30 44 1 42 17
M  V30 45 1 43 17
M  V30 46 1 44 18
M  V30 47 1 45 18
M  V30 48 1 46 18
M  V30 49 1 47 21
M  V30 50 1 23 48 CFG=3
M  V30 51 1 49 25
M  V30 END BOND
M  V30 END CTAB
M  END
>  <i_epik_Tot_Q>  (1) 
-1

>  <i_epik_Tot_abs_Q>  (1) 
1

>  <i_i_glide_confnum>  (1) 
215

>  <i_i_glide_lignum>  (1) 
62

>  <i_i_glide_posenum>  (1) 
188

>  <i_i_glide_rotatable_bonds>  (1) 
8

>  <i_lp_mmshare_version>  (1) 
72125

>  <i_m_source_file_index>  (1) 
37

>  <i_f3d_flags>  (1) 
0

>  <num_sample>  (1) 
100

>  <b_lp_Chiralities_Consistent>  (1) 
1

>  <r_epik_Charging_Adjusted_Penalty>  (1) 
6.3624129575878713e-05

>  <r_epik_Ionization_Penalty>  (1) 
6.3751974232529901e-05

>  <r_epik_Ionization_Penalty_Charging>  (1) 
6.3624129575878713e-05

>  <r_epik_Ionization_Penalty_Neutral>  (1) 
1.2784465665118319e-07

>  <r_epik_State_Penalty>  (1) 
-0

>  <r_glide_ring_energy>  (1) 
0

>  <r_i_docking_score>  (1) 
-6.3134158492057759

>  <r_i_glide_ecoul>  (1) 
-4.0708714108033046

>  <r_i_glide_eff_state_penalty>  (1) 
-0

>  <r_i_glide_einternal>  (1) 
12.994994893929894

>  <r_i_glide_emodel>  (1) 
-41.364237351006828

>  <r_i_glide_emodel_strain>  (1) 
0.88098545164774578

>  <r_i_glide_energy>  (1) 
-37.936224511609545

>  <r_i_glide_erotb>  (1) 
0.80862173255752579

>  <r_i_glide_esite>  (1) 
-0.083084378594080299

>  <r_i_glide_evdw>  (1) 
-33.865353100806239

>  <r_i_glide_gscore>  (1) 
-6.3134158492057759

>  <r_i_glide_gscore_strain>  (1) 
0

>  <r_i_glide_hbond>  (1) 
-0.10989179156846295

>  <r_i_glide_ligand_efficiency>  (1) 
-0.25253663396823106

>  <r_i_glide_ligand_efficiency_ln>  (1) 
-1.4964687540674437

>  <r_i_glide_ligand_efficiency_sa>  (1) 
-0.73842159727167744

>  <r_i_glide_lipo>  (1) 
-2.8369113918033184

>  <r_i_glide_metal>  (1) 
-0

>  <r_i_glide_rewards>  (1) 
-1.7882516531366321

>  <r_lp_Energy>  (1) 
46.703179999999996

>  <r_lp_tautomer_probability>  (1) 
1

>  <s_epik_cmdline>  (1) 
J2VwaWtfcHl0aG9uJywgJy1waHQnLCAnMS4wJywgJy1waCcsICc3LjQnLCAnLXRuJywgJzgnLCAnLW1hJywgJzUwMCcsICctaW1hZScsICc8aW5maWxlLm1hZT4nLCAnLW9tYWUnLCAnPG91dGZpbGUubWFlPic=

>  <s_epik_input>  (1) 
W09IXVtDQEBIXTFbQ0gyXVtDSDJdW0NIMl1bQ0BAXTEoW0NIM10pQyg9TylbTkhdW0NAQEhdKEMoPU8pW09IXSlbQ0gyXVtDSDJdQyg9W0NIXVtDSF09MilbQ0BIXShDMjMpW0NIXT1bQ0hdW0NIXT1bQ0hdMw==

>  <s_glide_docking_method>  (1) 
confgen

>  <s_i_glide_gridfile>  (1) 
gpcr_drd2_6luq_protein_autoprepared_prepared

>  <s_lp_Force_Field>  (1) 
S-OPLS

>  <s_lp_Variant>  (1) 
DiffSBDD_36-2

>  <s_m_source_file>  (1) 
generated_generic_title2_ligand_DiffSBDD_2026-06-23_prepared.sdf

>  <GenAI_Model>  (1) 
DiffSBDD

>  <Protein>  (1) 
generic_title2

$$$$
DiffSBDD_79
     RDKit          3D

  0  0  0  0  0  0  0  0  0  0999 V3000
M  V30 BEGIN CTAB
M  V30 COUNTS 53 56 0 0 1
M  V30 BEGIN ATOM
M  V30 1 C 12.377706 8.493850 -3.951751 0
M  V30 2 C 8.515902 6.080152 -12.239466 0 CFG=2
M  V30 3 C 12.249586 7.854536 -1.593246 0
M  V30 4 C 10.516649 7.546586 -8.621569 0
M  V30 5 C 8.374753 5.603237 -10.785945 0
M  V30 6 C 11.926444 7.019627 -3.829166 0
M  V30 7 C 12.344654 6.580433 -2.428691 0
M  V30 8 N 9.164536 5.942830 -9.848107 0
M  V30 9 C 10.011697 7.943889 -6.270935 0
M  V30 10 C 10.175410 6.887065 -9.930894 0
M  V30 11 C 7.894414 5.429596 -14.675529 0
M  V30 12 C 7.696950 7.226357 -12.769888 0
M  V30 13 C 11.974327 8.971653 -7.276434 0
M  V30 14 C 6.620090 4.010428 -11.749019 0
M  V30 15 C 11.150526 8.758761 -6.157629 0
M  V30 16 C 11.656652 8.374624 -8.513059 0
M  V30 17 C 6.198626 5.060132 -12.780040 0 CFG=1
M  V30 18 C 11.494638 9.399647 -4.827892 0
M  V30 19 C 7.183315 4.707793 -10.511629 0
M  V30 20 C 7.434507 5.818424 -13.274765 0 CFG=2
M  V30 21 C 12.586550 8.999312 -2.526138 0
M  V30 22 C 9.697375 7.335851 -7.489337 0
M  V30 23 O 10.794215 7.200372 -10.951198 0
M  V30 24 C 5.333976 4.436658 -13.868103 0
M  V30 25 H 13.372235 8.510681 -4.385009 0
M  V30 26 H 9.527453 5.920282 -12.607295 0
M  V30 27 H 12.975442 7.851249 -0.785028 0
M  V30 28 H 11.246796 7.986858 -1.185059 0
M  V30 29 H 10.854310 6.898129 -3.925865 0
M  V30 30 H 12.325143 6.390245 -4.619576 0
M  V30 31 H 13.375265 6.225953 -2.431390 0
M  V30 32 H 11.721415 5.775627 -2.037221 0
M  V30 33 H 9.379240 7.778548 -5.417781 0
M  V30 34 H 8.083282 4.358159 -14.734673 0
M  V30 35 H 7.150465 5.706198 -15.422062 0
M  V30 36 H 8.820246 5.940427 -14.933373 0
M  V30 37 H 8.175344 7.925730 -13.448913 0
M  V30 38 H 6.967696 7.672334 -12.095107 0
M  V30 39 H 12.851023 9.589995 -7.184441 0
M  V30 40 H 7.358652 3.332068 -12.179743 0
M  V30 41 H 5.772714 3.395944 -11.448645 0
M  V30 42 H 12.292463 8.541860 -9.371163 0
M  V30 43 H 5.556736 5.782247 -12.271896 0
M  V30 44 H 11.999229 10.348911 -5.007906 0
M  V30 45 H 10.575426 9.655661 -4.305912 0
M  V30 46 H 7.445221 3.990218 -9.740546 0
M  V30 47 H 6.405949 5.330865 -10.066598 0
M  V30 48 H 13.648800 9.190361 -2.385129 0
M  V30 49 H 12.031476 9.908058 -2.289268 0
M  V30 50 H 8.818063 6.710467 -7.558165 0
M  V30 51 H 5.868025 3.641860 -14.385671 0
M  V30 52 H 4.437377 3.990595 -13.437685 0
M  V30 53 H 5.009484 5.190297 -14.586301 0
M  V30 END ATOM
M  V30 BEGIN BOND
M  V30 1 1 5 2
M  V30 2 1 6 1
M  V30 3 1 7 3
M  V30 4 1 7 6
M  V30 5 2 8 5
M  V30 6 1 10 4
M  V30 7 1 10 8
M  V30 8 1 12 2
M  V30 9 1 15 9
M  V30 10 2 15 13
M  V30 11 2 16 4
M  V30 12 1 16 13
M  V30 13 1 17 14
M  V30 14 1 18 1
M  V30 15 1 18 15
M  V30 16 1 19 5
M  V30 17 1 19 14
M  V30 18 1 20 2
M  V30 19 1 20 11 CFG=3
M  V30 20 1 20 12
M  V30 21 1 20 17
M  V30 22 1 21 1
M  V30 23 1 21 3
M  V30 24 1 22 4
M  V30 25 2 22 9
M  V30 26 2 23 10
M  V30 27 1 24 17
M  V30 28 1 25 1
M  V30 29 1 2 26 CFG=3
M  V30 30 1 27 3
M  V30 31 1 28 3
M  V30 32 1 29 6
M  V30 33 1 30 6
M  V30 34 1 31 7
M  V30 35 1 32 7
M  V30 36 1 33 9
M  V30 37 1 34 11
M  V30 38 1 35 11
M  V30 39 1 36 11
M  V30 40 1 37 12
M  V30 41 1 38 12
M  V30 42 1 39 13
M  V30 43 1 40 14
M  V30 44 1 41 14
M  V30 45 1 42 16
M  V30 46 1 17 43 CFG=1
M  V30 47 1 44 18
M  V30 48 1 45 18
M  V30 49 1 46 19
M  V30 50 1 47 19
M  V30 51 1 48 21
M  V30 52 1 49 21
M  V30 53 1 50 22
M  V30 54 1 51 24
M  V30 55 1 52 24
M  V30 56 1 53 24
M  V30 END BOND
M  V30 END CTAB
M  END
>  <i_epik_Tot_Q>  (1) 
0

>  <i_epik_Tot_abs_Q>  (1) 
0

>  <i_i_glide_confnum>  (1) 
7

>  <i_i_glide_lignum>  (1) 
138

>  <i_i_glide_posenum>  (1) 
81

>  <i_i_glide_rotatable_bonds>  (1) 
4

>  <i_lp_mmshare_version>  (1) 
72125

>  <i_m_source_file_index>  (1) 
80

>  <i_f3d_flags>  (1) 
0

>  <num_sample>  (1) 
100

>  <b_lp_Chiralities_Consistent>  (1) 
1

>  <r_epik_Charging_Adjusted_Penalty>  (1) 
0

>  <r_epik_Ionization_Penalty>  (1) 
0

>  <r_epik_Ionization_Penalty_Charging>  (1) 
0

>  <r_epik_Ionization_Penalty_Neutral>  (1) 
0

>  <r_epik_State_Penalty>  (1) 
-0

>  <r_glide_ring_energy>  (1) 
0.22242768926462378

>  <r_i_docking_score>  (1) 
-6.3033792574374736

>  <r_i_glide_ecoul>  (1) 
-0.64095312922214565

>  <r_i_glide_eff_state_penalty>  (1) 
-0

>  <r_i_glide_einternal>  (1) 
1.8745750443805775

>  <r_i_glide_emodel>  (1) 
-40.479363209419624

>  <r_i_glide_emodel_strain>  (1) 
1.0265215240490448

>  <r_i_glide_energy>  (1) 
-32.569069257139731

>  <r_i_glide_erotb>  (1) 
0.71538486133248902

>  <r_i_glide_esite>  (1) 
-0.12357299180360254

>  <r_i_glide_evdw>  (1) 
-31.928116127917587

>  <r_i_glide_gscore>  (1) 
-6.3033792574374736

>  <r_i_glide_gscore_strain>  (1) 
0

>  <r_i_glide_hbond>  (1) 
0

>  <r_i_glide_ligand_efficiency>  (1) 
-0.26264080239322807

>  <r_i_glide_ligand_efficiency_ln>  (1) 
-1.5086878995315705

>  <r_i_glide_ligand_efficiency_sa>  (1) 
-0.75758716879365229

>  <r_i_glide_lipo>  (1) 
-3.0991141466417029

>  <r_i_glide_metal>  (1) 
-0

>  <r_i_glide_rewards>  (1) 
-2.103528204545456

>  <r_lp_Energy>  (1) 
51.233270999999995

>  <r_lp_tautomer_probability>  (1) 
1

>  <s_epik_Chemistry_Notes>  (1) 
This compound has an imine and may undergo hydrolysis.

>  <s_epik_cmdline>  (1) 
J2VwaWtfcHl0aG9uJywgJy1waHQnLCAnMS4wJywgJy1waCcsICc3LjQnLCAnLXRuJywgJzgnLCAnLW1hJywgJzUwMCcsICctaW1hZScsICc8aW5maWxlLm1hZT4nLCAnLW9tYWUnLCAnPG91dGZpbGUubWFlPic=

>  <s_epik_input>  (1) 
W0NIMl0xW0NIMl1bQ0gyXVtDSDJdW0NIXTFbQ0gyXWMoW2NIXVtjSF0yKVtjSF1bY0hdYzJDKD1PKS9OPUMoXFtDQEhdKFtDSDJdMylDMzRbQ0gzXSlbQ0gyXVtDSDJdW0NAQEhdNFtDSDNd

>  <s_glide_docking_method>  (1) 
confgen

>  <s_i_glide_gridfile>  (1) 
gpcr_drd2_6luq_protein_autoprepared_prepared

>  <s_lp_Force_Field>  (1) 
S-OPLS

>  <s_lp_Variant>  (1) 
DiffSBDD_79-2

>  <s_m_source_file>  (1) 
generated_generic_title2_ligand_DiffSBDD_2026-06-23_prepared.sdf

>  <GenAI_Model>  (1) 
DiffSBDD

>  <Protein>  (1) 
generic_title2

$$$$
DiffSBDD_63
     RDKit          3D

  0  0  0  0  0  0  0  0  0  0999 V3000
M  V30 BEGIN CTAB
M  V30 COUNTS 47 48 0 0 1
M  V30 BEGIN ATOM
M  V30 1 C 5.683458 6.809681 -17.691096 0
M  V30 2 C 6.974617 5.593376 -15.496380 0
M  V30 3 C 10.542268 7.936271 -6.358585 0
M  V30 4 C 10.026767 6.792702 -5.829148 0
M  V30 5 C 7.253299 5.161831 -16.811417 0
M  V30 6 C 9.216568 5.698868 -10.162958 0
M  V30 7 C 12.789111 8.747656 -3.498799 0
M  V30 8 F 5.061833 7.390356 -18.744608 0
M  V30 9 C 8.083234 5.701502 -12.258825 0
M  V30 10 C 9.397901 7.695105 -8.585110 0
M  V30 11 C 11.471341 8.761420 -5.571244 0
M  V30 12 O 11.958825 9.827391 -5.951611 0
M  V30 13 N 8.379738 5.868663 -13.473403 0
M  V30 14 C 5.913836 5.275880 -10.970990 0
M  V30 15 S 12.175412 8.790226 -1.811196 0
M  V30 16 C 6.607642 5.769672 -17.905739 0
M  V30 17 F 5.775410 7.066759 -14.027883 0
M  V30 18 C 5.405894 7.247342 -16.382396 0
M  V30 19 S 6.458393 3.976049 -13.323857 0
M  V30 20 C 7.069285 4.685350 -11.792442 0 CFG=1
M  V30 21 O 8.647245 6.432804 -11.242219 0
M  V30 22 C 10.156270 6.610426 -9.362300 0
M  V30 23 N 10.250411 8.386138 -7.636157 0
M  V30 24 N 11.775412 8.206716 -4.385005 0
M  V30 25 C 7.667661 4.922851 -14.312830 0 CFG=1
M  V30 26 C 6.048403 6.642772 -15.284413 0
M  V30 27 H 7.959501 4.362207 -16.980484 0
M  V30 28 H 8.445018 5.308703 -9.498745 0
M  V30 29 H 9.775394 4.840039 -10.538352 0
M  V30 30 H 13.603562 8.027172 -3.521359 0
M  V30 31 H 13.168662 9.728254 -3.788425 0
M  V30 32 H 8.975563 8.429510 -9.272048 0
M  V30 33 H 8.575407 7.245807 -8.040485 0
M  V30 34 H 6.247644 5.593414 -9.985071 0
M  V30 35 H 5.134912 4.531287 -10.811668 0
M  V30 36 H 5.459555 6.135484 -11.465617 0
M  V30 37 H 13.067850 9.691114 -1.371347 0
M  V30 38 H 6.820727 5.436503 -18.910693 0
M  V30 39 H 4.698497 8.047252 -16.219794 0
M  V30 40 H 7.573605 3.900412 -11.235932 0
M  V30 41 H 10.896925 7.065259 -10.020671 0
M  V30 42 H 10.705866 5.990397 -8.654108 0
M  V30 43 H 11.344014 7.333012 -4.127640 0
M  V30 44 H 8.390185 4.201143 -14.697156 0
M  V30 45 H 9.349225 6.176094 -6.398212 0
M  V30 46 H 10.269503 6.459417 -4.833157 0
M  V30 47 H 10.683129 9.241926 -7.954203 0
M  V30 END ATOM
M  V30 BEGIN BOND
M  V30 1 2 4 3
M  V30 2 1 5 2
M  V30 3 1 8 1
M  V30 4 1 11 3
M  V30 5 2 12 11
M  V30 6 2 13 9
M  V30 7 1 15 7
M  V30 8 1 16 1
M  V30 9 2 16 5
M  V30 10 2 18 1
M  V30 11 1 20 9
M  V30 12 1 20 14
M  V30 13 1 20 19
M  V30 14 1 21 6
M  V30 15 1 21 9
M  V30 16 1 22 6
M  V30 17 1 22 10
M  V30 18 1 23 3
M  V30 19 1 23 10
M  V30 20 1 24 7
M  V30 21 1 24 11
M  V30 22 1 25 2
M  V30 23 1 25 13
M  V30 24 1 25 19
M  V30 25 2 26 2
M  V30 26 1 26 17
M  V30 27 1 26 18
M  V30 28 1 27 5
M  V30 29 1 28 6
M  V30 30 1 29 6
M  V30 31 1 30 7
M  V30 32 1 31 7
M  V30 33 1 32 10
M  V30 34 1 33 10
M  V30 35 1 34 14
M  V30 36 1 35 14
M  V30 37 1 36 14
M  V30 38 1 37 15
M  V30 39 1 38 16
M  V30 40 1 39 18
M  V30 41 1 20 40 CFG=1
M  V30 42 1 41 22
M  V30 43 1 42 22
M  V30 44 1 43 24
M  V30 45 1 25 44 CFG=3
M  V30 46 1 45 4
M  V30 47 1 46 4
M  V30 48 1 47 23
M  V30 END BOND
M  V30 END CTAB
M  END
>  <i_epik_Tot_Q>  (1) 
0

>  <i_epik_Tot_abs_Q>  (1) 
0

>  <i_i_glide_confnum>  (1) 
28

>  <i_i_glide_lignum>  (1) 
100

>  <i_i_glide_posenum>  (1) 
258

>  <i_i_glide_rotatable_bonds>  (1) 
11

>  <i_lp_mmshare_version>  (1) 
72125

>  <i_m_source_file_index>  (1) 
64

>  <i_f3d_flags>  (1) 
0

>  <num_sample>  (1) 
100

>  <b_lp_Chiralities_Consistent>  (1) 
1

>  <r_epik_Charging_Adjusted_Penalty>  (1) 
0.013849271164821807

>  <r_epik_Ionization_Penalty>  (1) 
0.12391676861929035

>  <r_epik_Ionization_Penalty_Charging>  (1) 
0.013849271164821807

>  <r_epik_Ionization_Penalty_Neutral>  (1) 
0.11006749745446855

>  <r_epik_State_Penalty>  (1) 
-0

>  <r_glide_ring_energy>  (1) 
0

>  <r_i_docking_score>  (1) 
-6.301933918641045

>  <r_i_glide_ecoul>  (1) 
-3.2720870384810725

>  <r_i_glide_eff_state_penalty>  (1) 
-0

>  <r_i_glide_einternal>  (1) 
5.4623143956039577

>  <r_i_glide_emodel>  (1) 
-58.612113576290866

>  <r_i_glide_emodel_strain>  (1) 
0.2125323569163875

>  <r_i_glide_energy>  (1) 
-45.116392640320406

>  <r_i_glide_erotb>  (1) 
1.2167697096945405

>  <r_i_glide_esite>  (1) 
-0.023156161833811407

>  <r_i_glide_evdw>  (1) 
-41.844305601839331

>  <r_i_glide_gscore>  (1) 
-6.301933918641045

>  <r_i_glide_gscore_strain>  (1) 
0

>  <r_i_glide_hbond>  (1) 
-0.32000000000000001

>  <r_i_glide_ligand_efficiency>  (1) 
-0.24238207379388635

>  <r_i_glide_ligand_efficiency_ln>  (1) 
-1.4799885024610619

>  <r_i_glide_ligand_efficiency_sa>  (1) 
-0.71805594066681355

>  <r_i_glide_lipo>  (1) 
-2.2104878285872513

>  <r_i_glide_metal>  (1) 
-0

>  <r_i_glide_rewards>  (1) 
-2.3820313020503954

>  <r_lp_Energy>  (1) 
18.833002999999998

>  <r_lp_tautomer_probability>  (1) 
1

>  <s_epik_Chemistry_Notes>  (1) 
This compound has an imine and may undergo hydrolysis. This compound contains an acetal/aminal-like group ( X-CH(R)-Y where X, Y are N, S, or O) that may be acid/base labile, releasing an aldehyde.

>  <s_epik_cmdline>  (1) 
J2VwaWtfcHl0aG9uJywgJy1waHQnLCAnMS4wJywgJy1waCcsICc3LjQnLCAnLXRuJywgJzgnLCAnLW1hJywgJzUwMCcsICctaW1hZScsICc8aW5maWxlLm1hZT4nLCAnLW9tYWUnLCAnPG91dGZpbGUubWFlPic=

>  <s_epik_input>  (1) 
RmMxW2NIXVtjSF1jKGMoRilbY0hdMSlbQ0BIXShTW0NAQEhdMltDSDNdKU49QzJPW0NIMl1bQ0gyXVtDSDJdW05IXUMoPVtDSDJdKUMoPU8pW05IXVtDSDJdW1NIXQ==

>  <s_glide_docking_method>  (1) 
confgen

>  <s_i_glide_gridfile>  (1) 
gpcr_drd2_6luq_protein_autoprepared_prepared

>  <s_lp_Force_Field>  (1) 
S-OPLS

>  <s_lp_Variant>  (1) 
DiffSBDD_63-1

>  <s_m_source_file>  (1) 
generated_generic_title2_ligand_DiffSBDD_2026-06-23_prepared.sdf

>  <GenAI_Model>  (1) 
DiffSBDD

>  <Protein>  (1) 
generic_title2

$$$$
DiffSBDD_9
     RDKit          3D

  0  0  0  0  0  0  0  0  0  0999 V3000
M  V30 BEGIN CTAB
M  V30 COUNTS 66 71 0 0 1
M  V30 BEGIN ATOM
M  V30 1 C 12.175199 6.390361 -2.808650 0
M  V30 2 O 12.175397 9.990202 -2.385082 0
M  V30 3 C 11.678013 6.278079 -4.121823 0
M  V30 4 C 7.669469 5.386045 -15.631511 0 CFG=2
M  V30 5 C 5.950731 6.187918 -17.359469 0
M  V30 6 C 9.640937 6.673191 -10.705601 0
M  V30 7 C 11.859376 7.793774 -7.244891 0 CFG=2
M  V30 8 C 11.503624 9.191645 -7.582927 0
M  V30 9 C 5.257786 8.177279 -16.196374 0
M  V30 10 O 8.274495 3.990323 -11.490193 0
M  V30 11 C 12.358355 7.643762 -2.236403 0
M  V30 12 C 8.088305 5.302473 -14.159566 0
M  V30 13 C 10.777160 7.334287 -9.903918 0
M  V30 14 O 9.531555 7.100192 -11.967817 0
M  V30 15 C 6.294306 6.041401 -15.876063 0 CFG=2
M  V30 16 N 6.194932 7.417423 -15.346609 0 CHG=1
M  V30 17 N 10.355157 6.451395 -8.658289 0 CHG=1
M  V30 18 C 7.743089 4.985299 -10.643960 0
M  V30 19 C 4.852006 7.242706 -17.342288 0
M  V30 20 C 9.358117 5.664278 -8.858762 0
M  V30 21 C 11.578032 8.689320 -4.298540 0
M  V30 22 C 11.955083 10.135731 -6.439259 0
M  V30 23 O 7.289112 3.670902 -12.564071 0
M  V30 24 C 8.904684 5.783486 -10.102803 0
M  V30 25 C 7.250822 3.210662 -14.962595 0
M  V30 26 C 11.233477 9.948188 -5.093588 0
M  V30 27 C 11.197272 6.457292 -7.438814 0 CFG=2
M  V30 28 C 10.827468 7.301964 -6.251672 0 CFG=1
M  V30 29 C 7.979300 3.836610 -13.784663 0 CFG=1
M  V30 30 C 11.375374 7.418183 -4.872539 0
M  V30 31 O 7.616712 4.032188 -16.062315 0
M  V30 32 C 12.052876 8.790416 -2.967506 0
M  V30 33 H 12.404951 5.506497 -2.240165 0
M  V30 34 H 12.865172 10.089565 -1.735537 0
M  V30 35 H 11.527619 5.309269 -4.551396 0
M  V30 36 H 8.431785 5.914946 -16.203570 0
M  V30 37 H 6.813603 6.558569 -17.915447 0
M  V30 38 H 5.637326 5.252177 -17.822534 0
M  V30 39 H 12.926985 7.662345 -7.185023 0
M  V30 40 H 10.425606 9.190269 -7.743905 0
M  V30 41 H 11.993144 9.478980 -8.513331 0
M  V30 42 H 5.775227 9.061250 -16.572321 0
M  V30 43 H 4.390268 8.512248 -15.625627 0
M  V30 44 H 12.721132 7.728083 -1.223051 0
M  V30 45 H 7.469996 5.931631 -13.519606 0
M  V30 46 H 9.127143 5.609261 -14.046103 0
M  V30 47 H 11.795306 7.111851 -10.221926 0
M  V30 48 H 10.569564 8.388508 -9.752108 0
M  V30 49 H 5.513773 5.460932 -15.383810 0
M  V30 50 H 5.898723 7.419388 -14.381085 0
M  V30 51 H 7.163883 4.518790 -9.845281 0
M  V30 52 H 7.072024 5.655704 -11.183344 0
M  V30 53 H 4.755616 7.762751 -18.295133 0
M  V30 54 H 3.893797 6.769190 -17.119198 0
M  V30 55 H 8.985554 5.006620 -8.082482 0
M  V30 56 H 11.775611 11.160005 -6.766911 0
M  V30 57 H 13.032371 10.054679 -6.285294 0
M  V30 58 H 7.525354 2.168372 -15.128645 0
M  V30 59 H 6.175423 3.265349 -14.803220 0
M  V30 60 H 10.175376 9.923595 -5.277945 0
M  V30 61 H 11.375428 10.833843 -4.492179 0
M  V30 62 H 11.703106 5.511641 -7.263419 0
M  V30 63 H 9.805815 7.680359 -6.264616 0
M  V30 64 H 8.975120 3.405718 -13.690245 0
M  V30 65 H 7.099421 7.861400 -15.418620 0
M  V30 66 H 8.810637 6.630762 -12.357448 0
M  V30 END ATOM
M  V30 BEGIN BOND
M  V30 1 1 3 1
M  V30 2 1 8 7
M  V30 3 2 11 1
M  V30 4 1 12 4
M  V30 5 1 13 6
M  V30 6 1 14 6
M  V30 7 1 15 4
M  V30 8 1 15 5
M  V30 9 1 16 9
M  V30 10 1 16 15
M  V30 11 1 17 13
M  V30 12 1 18 10
M  V30 13 1 19 5
M  V30 14 1 19 9
M  V30 15 2 20 17
M  V30 16 1 22 8
M  V30 17 1 23 10
M  V30 18 2 24 6
M  V30 19 1 24 18
M  V30 20 1 24 20
M  V30 21 1 26 21
M  V30 22 1 26 22
M  V30 23 1 27 7
M  V30 24 1 27 17
M  V30 25 1 28 7
M  V30 26 1 28 27
M  V30 27 1 29 12
M  V30 28 1 29 23
M  V30 29 1 29 25
M  V30 30 2 30 3
M  V30 31 1 30 21
M  V30 32 1 30 28
M  V30 33 1 31 4
M  V30 34 1 31 25
M  V30 35 1 32 2
M  V30 36 1 32 11
M  V30 37 2 32 21
M  V30 38 1 33 1
M  V30 39 1 34 2
M  V30 40 1 35 3
M  V30 41 1 4 36 CFG=3
M  V30 42 1 37 5
M  V30 43 1 38 5
M  V30 44 1 7 39 CFG=1
M  V30 45 1 40 8
M  V30 46 1 41 8
M  V30 47 1 42 9
M  V30 48 1 43 9
M  V30 49 1 44 11
M  V30 50 1 45 12
M  V30 51 1 46 12
M  V30 52 1 47 13
M  V30 53 1 48 13
M  V30 54 1 15 49 CFG=1
M  V30 55 1 50 16
M  V30 56 1 51 18
M  V30 57 1 52 18
M  V30 58 1 53 19
M  V30 59 1 54 19
M  V30 60 1 55 20
M  V30 61 1 56 22
M  V30 62 1 57 22
M  V30 63 1 58 25
M  V30 64 1 59 25
M  V30 65 1 60 26
M  V30 66 1 61 26
M  V30 67 1 27 62 CFG=1
M  V30 68 1 28 63 CFG=1
M  V30 69 1 29 64 CFG=1
M  V30 70 1 65 16
M  V30 71 1 66 14
M  V30 END BOND
M  V30 END CTAB
M  END
>  <i_epik_Tot_Q>  (1) 
2

>  <i_epik_Tot_abs_Q>  (1) 
2

>  <i_i_glide_confnum>  (1) 
359

>  <i_i_glide_lignum>  (1) 
17

>  <i_i_glide_posenum>  (1) 
348

>  <i_i_glide_rotatable_bonds>  (1) 
8

>  <i_lp_mmshare_version>  (1) 
72125

>  <i_m_source_file_index>  (1) 
10

>  <i_f3d_flags>  (1) 
0

>  <num_sample>  (1) 
100

>  <b_lp_Chiralities_Consistent>  (1) 
1

>  <r_epik_Charging_Adjusted_Penalty>  (1) 
1.3157260146662635

>  <r_epik_Ionization_Penalty>  (1) 
1.3160658386974122

>  <r_epik_Ionization_Penalty_Charging>  (1) 
0.0006406180093694357

>  <r_epik_Ionization_Penalty_Neutral>  (1) 
1.3154252206880428

>  <r_epik_State_Penalty>  (1) 
1.3150853966568941

>  <r_glide_ring_energy>  (1) 
1.1085812153389478

>  <r_i_docking_score>  (1) 
-6.2987611413772404

>  <r_i_glide_ecoul>  (1) 
-8.6485983113204199

>  <r_i_glide_eff_state_penalty>  (1) 
1.3150853966568941

>  <r_i_glide_einternal>  (1) 
9.929830455253903

>  <r_i_glide_emodel>  (1) 
-43.51698254131405

>  <r_i_glide_emodel_strain>  (1) 
1.2766680472900589

>  <r_i_glide_energy>  (1) 
-33.099041876807689

>  <r_i_glide_erotb>  (1) 
0.61220542290859559

>  <r_i_glide_esite>  (1) 
-0.086023096117034806

>  <r_i_glide_evdw>  (1) 
-24.450443565487269

>  <r_i_glide_gscore>  (1) 
-7.6138465380341342

>  <r_i_glide_gscore_strain>  (1) 
0

>  <r_i_glide_hbond>  (1) 
-0.24987500316790229

>  <r_i_glide_ligand_efficiency>  (1) 
-0.19683628566803876

>  <r_i_glide_ligand_efficiency_ln>  (1) 
-1.4104643172983709

>  <r_i_glide_ligand_efficiency_sa>  (1) 
-0.62491625386991556

>  <r_i_glide_lipo>  (1) 
-4.0787064594126363

>  <r_i_glide_metal>  (1) 
-0

>  <r_i_glide_rewards>  (1) 
-1.2916354772727288

>  <r_lp_Energy>  (1) 
41.799700000000001

>  <r_lp_tautomer_probability>  (1) 
0.99929914238884965

>  <s_epik_Chemistry_Notes>  (1) 
This compound has an imine and may undergo hydrolysis.

>  <s_epik_cmdline>  (1) 
J2VwaWtfcHl0aG9uJywgJy1waHQnLCAnMS4wJywgJy1waCcsICc3LjQnLCAnLXRuJywgJzgnLCAnLW1hJywgJzUwMCcsICctaW1hZScsICc8aW5maWxlLm1hZT4nLCAnLW9tYWUnLCAnPG91dGZpbGUubWFlPic=

>  <s_epik_input>  (1) 
W2NIXTFbY0hdW2NIXWMoW09IXSljKFtDSDJdW0NIMl1bQ0gyXTIpYzFbQ0BASF0oW0NASF0yMylbQ0hdM24oW2NIXWM0W09IXSlbY0hdYzRbQ0gyXU9PW0NAQEhdKFtDSDJdTzUpW0NIMl1bQ0BASF01W0NAQEhdNltDSDJdW0NIMl1bQ0gyXVtOSF02

>  <s_glide_docking_method>  (1) 
confgen

>  <s_i_glide_gridfile>  (1) 
gpcr_drd2_6luq_protein_autoprepared_prepared

>  <s_lp_Force_Field>  (1) 
S-OPLS

>  <s_lp_Variant>  (1) 
DiffSBDD_9-2

>  <s_m_source_file>  (1) 
generated_generic_title2_ligand_DiffSBDD_2026-06-23_prepared.sdf

>  <GenAI_Model>  (1) 
DiffSBDD

>  <Protein>  (1) 
generic_title2

$$$$
DiffSBDD_72
     RDKit          3D

  0  0  0  0  0  0  0  0  0  0999 V3000
M  V30 BEGIN CTAB
M  V30 COUNTS 47 49 0 0 1
M  V30 BEGIN ATOM
M  V30 1 C 12.198124 8.202204 -3.044214 0
M  V30 2 C 12.164669 8.505878 -7.528336 0
M  V30 3 C 9.608797 8.363742 -6.939384 0
M  V30 4 C 11.375409 8.129009 -5.178911 0
M  V30 5 C 12.800307 8.790230 -1.824591 0
M  V30 6 C 11.224860 6.804856 -4.815540 0
M  V30 7 C 6.663723 4.211380 -13.190667 0
M  V30 8 C 6.276115 5.443206 -14.015746 0
M  V30 9 C 11.031616 8.761370 -6.500959 0 CFG=1
M  V30 10 N 11.930996 8.899515 -4.147292 0
M  V30 11 C 8.926296 6.658256 -11.613133 0
M  V30 12 C 9.689241 7.476978 -9.327921 0 CFG=2
M  V30 13 C 9.518580 7.127102 -7.838594 0
M  V30 14 C 7.628735 6.046010 -12.167998 0 CFG=1
M  V30 15 C 7.290762 6.488119 -13.587997 0
M  V30 16 S 11.775409 6.520867 -3.183796 0
M  V30 17 O 7.715152 4.638007 -12.330491 0
M  V30 18 O 9.376125 5.138738 -9.827158 0 CHG=-1
M  V30 19 N 8.975410 6.390230 -10.127081 0 CFG=2 CHG=1
M  V30 20 C 11.153841 7.694757 -9.758270 0
M  V30 21 C 11.872136 8.832180 -9.007169 0
M  V30 22 H 13.037418 9.077069 -7.208387 0
M  V30 23 H 12.473521 7.461788 -7.475821 0
M  V30 24 H 8.978502 8.227305 -6.059648 0
M  V30 25 H 9.142729 9.190232 -7.469299 0
M  V30 26 H 13.775405 9.190211 -2.078220 0
M  V30 27 H 12.172689 9.590318 -1.432409 0
M  V30 28 H 12.935165 8.029376 -1.057923 0
M  V30 29 H 10.830177 5.990720 -5.403203 0
M  V30 30 H 7.008336 3.387071 -13.815850 0
M  V30 31 H 5.818340 3.858717 -12.598143 0
M  V30 32 H 6.301416 5.255966 -15.089242 0
M  V30 33 H 5.267076 5.763753 -13.753258 0
M  V30 34 H 10.993510 9.841212 -6.347975 0
M  V30 35 H 8.896916 7.741006 -11.737422 0
M  V30 36 H 9.835923 6.263359 -12.066293 0
M  V30 37 H 9.124495 8.382415 -9.553200 0
M  V30 38 H 8.534484 6.687727 -7.689878 0
M  V30 39 H 10.221732 6.349758 -7.542139 0
M  V30 40 H 6.789034 6.282680 -11.510700 0
M  V30 41 H 6.905408 7.506626 -13.639116 0
M  V30 42 H 8.175387 6.423950 -14.222403 0
M  V30 43 H 11.197243 7.907983 -10.825007 0
M  V30 44 H 11.726673 6.790227 -9.606105 0
M  V30 45 H 11.351967 9.780920 -9.120054 0
M  V30 46 H 12.832658 8.978579 -9.502641 0
M  V30 47 H 7.983102 6.549902 -9.825143 0
M  V30 END ATOM
M  V30 BEGIN BOND
M  V30 1 1 5 1
M  V30 2 2 6 4
M  V30 3 1 8 7
M  V30 4 1 9 2
M  V30 5 1 9 3
M  V30 6 1 9 4
M  V30 7 2 10 1
M  V30 8 1 10 4
M  V30 9 1 13 3
M  V30 10 1 13 12
M  V30 11 1 14 11
M  V30 12 1 15 8
M  V30 13 1 15 14
M  V30 14 1 16 1
M  V30 15 1 16 6
M  V30 16 1 17 7
M  V30 17 1 17 14
M  V30 18 1 19 11
M  V30 19 1 19 12
M  V30 20 1 19 18
M  V30 21 1 20 12
M  V30 22 1 21 2
M  V30 23 1 21 20
M  V30 24 1 22 2
M  V30 25 1 23 2
M  V30 26 1 24 3
M  V30 27 1 25 3
M  V30 28 1 26 5
M  V30 29 1 27 5
M  V30 30 1 28 5
M  V30 31 1 29 6
M  V30 32 1 30 7
M  V30 33 1 31 7
M  V30 34 1 32 8
M  V30 35 1 33 8
M  V30 36 1 9 34 CFG=1
M  V30 37 1 35 11
M  V30 38 1 36 11
M  V30 39 1 12 37 CFG=1
M  V30 40 1 38 13
M  V30 41 1 39 13
M  V30 42 1 14 40 CFG=1
M  V30 43 1 41 15
M  V30 44 1 42 15
M  V30 45 1 43 20
M  V30 46 1 44 20
M  V30 47 1 45 21
M  V30 48 1 46 21
M  V30 49 1 19 47 CFG=1
M  V30 END BOND
M  V30 END CTAB
M  END
>  <i_epik_Tot_Q>  (1) 
0

>  <i_epik_Tot_abs_Q>  (1) 
2

>  <i_i_glide_confnum>  (1) 
200

>  <i_i_glide_lignum>  (1) 
119

>  <i_i_glide_posenum>  (1) 
312

>  <i_i_glide_rotatable_bonds>  (1) 
4

>  <i_lp_mmshare_version>  (1) 
72125

>  <i_m_source_file_index>  (1) 
73

>  <i_f3d_flags>  (1) 
0

>  <num_sample>  (1) 
100

>  <b_lp_Chiralities_Consistent>  (1) 
1

>  <r_epik_Charging_Adjusted_Penalty>  (1) 
0.52782075658533367

>  <r_epik_Ionization_Penalty>  (1) 
0.0061787587503483845

>  <r_epik_Ionization_Penalty_Charging>  (1) 
0.0058496280333447418

>  <r_epik_Ionization_Penalty_Neutral>  (1) 
0.00032913071700364294

>  <r_epik_State_Penalty>  (1) 
0.52197112855198891

>  <r_glide_ring_energy>  (1) 
0.39787127286497581

>  <r_i_docking_score>  (1) 
-6.2945380141931162

>  <r_i_glide_ecoul>  (1) 
-4.1692475496083459

>  <r_i_glide_eff_state_penalty>  (1) 
0.52197112855198891

>  <r_i_glide_einternal>  (1) 
9.2675305260180032

>  <r_i_glide_emodel>  (1) 
-47.471851753311654

>  <r_i_glide_emodel_strain>  (1) 
0.0091251440469051204

>  <r_i_glide_energy>  (1) 
-37.36994084126308

>  <r_i_glide_erotb>  (1) 
0.76903323708162985

>  <r_i_glide_esite>  (1) 
-0.10000000000000001

>  <r_i_glide_evdw>  (1) 
-33.200693291654737

>  <r_i_glide_gscore>  (1) 
-6.8165091427451054

>  <r_i_glide_gscore_strain>  (1) 
0

>  <r_i_glide_hbond>  (1) 
-0.12851907755790964

>  <r_i_glide_ligand_efficiency>  (1) 
-0.29973990543776746

>  <r_i_glide_ligand_efficiency_ln>  (1) 
-1.5563118046975604

>  <r_i_glide_ligand_efficiency_sa>  (1) 
-0.82695967173844764

>  <r_i_glide_lipo>  (1) 
-2.8792957325175643

>  <r_i_glide_metal>  (1) 
-0

>  <r_i_glide_rewards>  (1) 
-2.192305772727273

>  <r_lp_Energy>  (1) 
13.512606

>  <s_epik_cmdline>  (1) 
J2VwaWtfcHl0aG9uJywgJy1waHQnLCAnMS4wJywgJy1waCcsICc3LjQnLCAnLXRuJywgJzgnLCAnLW1hJywgJzUwMCcsICctaW1hZScsICc8aW5maWxlLm1hZT4nLCAnLW9tYWUnLCAnPG91dGZpbGUubWFlPic=

>  <s_epik_input>  (1) 
W0NIM11jMW5jKFtjSF1zMSlbQ0BIXTJbQ0gyXVtDSDJdW0NIMl1bQ0BIXShbQ0gyXVtDSDJdMilOKFtPSF0pW0NIMl1bQ0BIXTNbQ0gyXVtDSDJdW0NIMl1PMw==

>  <s_glide_docking_method>  (1) 
confgen

>  <s_i_glide_gridfile>  (1) 
gpcr_drd2_6luq_protein_autoprepared_prepared

>  <s_lp_Force_Field>  (1) 
S-OPLS

>  <s_lp_Variant>  (1) 
DiffSBDD_72-3

>  <s_m_source_file>  (1) 
generated_generic_title2_ligand_DiffSBDD_2026-06-23_prepared.sdf

>  <GenAI_Model>  (1) 
DiffSBDD

>  <Protein>  (1) 
generic_title2

$$$$
DiffSBDD_14
     RDKit          3D

  0  0  0  0  0  0  0  0  0  0999 V3000
M  V30 BEGIN CTAB
M  V30 COUNTS 47 48 0 0 1
M  V30 BEGIN ATOM
M  V30 1 N 10.060162 7.118467 -11.131867 0
M  V30 2 C 5.938229 4.701399 -11.583967 0
M  V30 3 N 6.803607 5.590215 -10.785029 0 CHG=1
M  V30 4 C 11.283207 9.133735 -5.893035 0
M  V30 5 C 9.220895 6.087711 -10.727111 0
M  V30 6 C 6.552179 4.633233 -12.984582 0
M  V30 7 C 11.198773 7.337374 -8.924156 0
M  V30 8 C 8.621558 5.619079 -14.054647 0
M  V30 9 C 11.775746 9.008919 -4.579430 0
M  V30 10 C 10.787180 8.000367 -6.568818 0
M  V30 11 C 11.777129 7.741484 -3.940569 0
M  V30 12 C 11.278064 6.616404 -4.627120 0
M  V30 13 C 10.783800 6.748283 -5.933038 0
M  V30 14 C 10.960455 7.655160 -10.389392 0
M  V30 15 O 9.345360 5.303103 -9.782829 0
M  V30 16 C 8.848296 3.686044 -12.510116 0
M  V30 17 C 10.271959 8.119726 -7.984198 0
M  V30 18 N 12.572601 6.390794 -1.985049 0
M  V30 19 N 12.263491 7.595044 -2.625933 0
M  V30 20 C 7.962387 5.981528 -11.604307 0 CFG=1
M  V30 21 C 8.037094 4.973274 -12.791117 0
M  V30 22 O 12.973823 8.694329 -2.142203 0
M  V30 23 H 4.911880 5.060669 -11.602942 0
M  V30 24 H 5.934877 3.711898 -11.123610 0
M  V30 25 H 7.150034 5.072949 -9.991125 0
M  V30 26 H 11.288498 10.096535 -6.382220 0
M  V30 27 H 6.077111 5.393434 -13.607101 0
M  V30 28 H 6.385631 3.673610 -13.477844 0
M  V30 29 H 12.222217 7.649699 -8.711449 0
M  V30 30 H 11.204764 6.273893 -8.710572 0
M  V30 31 H 8.111299 6.551202 -14.301077 0
M  V30 32 H 9.678201 5.844327 -13.910263 0
M  V30 33 H 8.538821 4.959206 -14.918388 0
M  V30 34 H 12.153478 9.879473 -4.065860 0
M  V30 35 H 11.271671 5.647620 -4.148571 0
M  V30 36 H 10.404234 5.881485 -6.453332 0
M  V30 37 H 11.634261 8.414310 -10.785064 0
M  V30 38 H 8.566930 3.206070 -11.581540 0
M  V30 39 H 8.704681 2.952368 -13.303765 0
M  V30 40 H 9.919186 3.887657 -12.449666 0
M  V30 41 H 9.250762 7.738047 -8.034249 0
M  V30 42 H 10.227834 9.168575 -8.275946 0
M  V30 43 H 13.016811 6.587542 -1.091376 0
M  V30 44 H 11.714772 5.865591 -1.822181 0
M  V30 45 H 7.710712 6.973813 -11.984252 0
M  V30 46 H 12.361652 9.210876 -1.638171 0
M  V30 47 H 6.363791 6.439868 -10.435542 0
M  V30 END ATOM
M  V30 BEGIN BOND
M  V30 1 1 3 2
M  V30 2 1 5 1
M  V30 3 1 6 2
M  V30 4 2 9 4
M  V30 5 1 10 4
M  V30 6 1 11 9
M  V30 7 2 12 11
M  V30 8 2 13 10
M  V30 9 1 13 12
M  V30 10 2 14 1
M  V30 11 1 14 7
M  V30 12 2 15 5
M  V30 13 1 17 7
M  V30 14 1 17 10
M  V30 15 1 19 11
M  V30 16 1 19 18
M  V30 17 1 20 3
M  V30 18 1 20 5
M  V30 19 1 21 6
M  V30 20 1 21 8
M  V30 21 1 21 16
M  V30 22 1 21 20
M  V30 23 1 22 19
M  V30 24 1 23 2
M  V30 25 1 24 2
M  V30 26 1 25 3
M  V30 27 1 26 4
M  V30 28 1 27 6
M  V30 29 1 28 6
M  V30 30 1 29 7
M  V30 31 1 30 7
M  V30 32 1 31 8
M  V30 33 1 32 8
M  V30 34 1 33 8
M  V30 35 1 34 9
M  V30 36 1 35 12
M  V30 37 1 36 13
M  V30 38 1 37 14
M  V30 39 1 38 16
M  V30 40 1 39 16
M  V30 41 1 40 16
M  V30 42 1 41 17
M  V30 43 1 42 17
M  V30 44 1 43 18
M  V30 45 1 44 18
M  V30 46 1 20 45 CFG=3
M  V30 47 1 46 22
M  V30 48 1 47 3
M  V30 END BOND
M  V30 END CTAB
M  END
>  <i_epik_Tot_Q>  (1) 
1

>  <i_epik_Tot_abs_Q>  (1) 
1

>  <i_i_glide_confnum>  (1) 
143

>  <i_i_glide_lignum>  (1) 
29

>  <i_i_glide_posenum>  (1) 
396

>  <i_i_glide_rotatable_bonds>  (1) 
7

>  <i_lp_mmshare_version>  (1) 
72125

>  <i_m_source_file_index>  (1) 
15

>  <i_f3d_flags>  (1) 
0

>  <num_sample>  (1) 
100

>  <b_lp_Chiralities_Consistent>  (1) 
1

>  <r_epik_Charging_Adjusted_Penalty>  (1) 
1.3617227199011863

>  <r_epik_Ionization_Penalty>  (1) 
0.68407859148239814

>  <r_epik_Ionization_Penalty_Charging>  (1) 
0.68086135995059327

>  <r_epik_Ionization_Penalty_Neutral>  (1) 
0.0032172315318048095

>  <r_epik_State_Penalty>  (1) 
0.68086135995059305

>  <r_glide_ring_energy>  (1) 
0

>  <r_i_docking_score>  (1) 
-6.2885110406357558

>  <r_i_glide_ecoul>  (1) 
-6.5416206877500871

>  <r_i_glide_eff_state_penalty>  (1) 
0.68086135995059305

>  <r_i_glide_einternal>  (1) 
3.5834945268997531

>  <r_i_glide_emodel>  (1) 
-63.962728399250537

>  <r_i_glide_emodel_strain>  (1) 
0

>  <r_i_glide_energy>  (1) 
-41.108992971485243

>  <r_i_glide_erotb>  (1) 
1.1872890279772172

>  <r_i_glide_esite>  (1) 
-0.15493250614876516

>  <r_i_glide_evdw>  (1) 
-34.567372283735153

>  <r_i_glide_gscore>  (1) 
-6.9693724005863489

>  <r_i_glide_gscore_strain>  (1) 
0

>  <r_i_glide_hbond>  (1) 
-0.14496002555241239

>  <r_i_glide_ligand_efficiency>  (1) 
-0.28584141093798893

>  <r_i_glide_ligand_efficiency_ln>  (1) 
-1.5371414773448633

>  <r_i_glide_ligand_efficiency_sa>  (1) 
-0.80093887577827394

>  <r_i_glide_lipo>  (1) 
-2.3536467126167877

>  <r_i_glide_metal>  (1) 
-0

>  <r_i_glide_rewards>  (1) 
-2.79351046689633

>  <r_lp_Energy>  (1) 
33.931866999999997

>  <s_epik_Chemistry_Notes>  (1) 
This compound has an imine and may undergo hydrolysis. This compound has a N-S or N-O group and may undergo hydrolysis at high or low pH.

>  <s_epik_cmdline>  (1) 
J2VwaWtfcHl0aG9uJywgJy1waHQnLCAnMS4wJywgJy1waCcsICc3LjQnLCAnLXRuJywgJzgnLCAnLW1hJywgJzUwMCcsICctaW1hZScsICc8aW5maWxlLm1hZT4nLCAnLW9tYWUnLCAnPG91dGZpbGUubWFlPic=

>  <s_epik_input>  (1) 
W0NIM11DMShbQ0gzXSlbQ0gyXVtDSDJdW05IXVtDQEhdMUMoPU8pL049W0NIXVxbQ0gyXVtDSDJdYzJbY0hdW2NIXWMoW2NIXVtjSF0yKU4oW05IMl0pW09IXQ==

>  <s_glide_docking_method>  (1) 
confgen

>  <s_i_glide_gridfile>  (1) 
gpcr_drd2_6luq_protein_autoprepared_prepared

>  <s_lp_Force_Field>  (1) 
S-OPLS

>  <s_lp_Variant>  (1) 
DiffSBDD_14-4

>  <s_m_source_file>  (1) 
generated_generic_title2_ligand_DiffSBDD_2026-06-23_prepared.sdf

>  <GenAI_Model>  (1) 
DiffSBDD

>  <Protein>  (1) 
generic_title2

$$$$
DiffSBDD_68
     RDKit          3D

  0  0  0  0  0  0  0  0  0  0999 V3000
M  V30 BEGIN CTAB
M  V30 COUNTS 43 45 0 0 1
M  V30 BEGIN ATOM
M  V30 1 C 10.673317 6.447440 -6.770352 0
M  V30 2 C 6.200192 6.123362 -12.461597 0
M  V30 3 C 10.223519 7.497151 -5.749068 0
M  V30 4 C 9.705748 6.494715 -10.491940 0
M  V30 5 C 12.238900 8.765035 -7.782677 0
M  V30 6 N 6.142506 5.962741 -10.992808 0 CHG=1
M  V30 7 C 10.580569 6.873146 -8.222962 0
M  V30 8 C 7.415189 6.968386 -12.888012 0
M  V30 9 C 6.853082 4.806958 -10.387794 0
M  V30 10 F 10.975409 9.296200 -4.385034 0
M  V30 11 C 9.775454 6.131042 -9.117968 0
M  V30 12 C 11.325055 8.494739 -5.385413 0 CFG=2
M  V30 13 C 10.419969 7.631155 -10.931826 0
M  V30 14 C 11.668990 9.425504 -6.529620 0
M  V30 15 C 8.255345 4.531312 -10.942866 0
M  V30 16 N 8.947692 5.710417 -11.418387 0
M  V30 17 C 8.732425 6.194994 -12.775025 0
M  V30 18 C 11.313502 7.985484 -8.695363 0
M  V30 19 C 11.215612 8.362500 -10.036417 0
M  V30 20 H 10.018003 5.590132 -6.649247 0
M  V30 21 H 11.681805 6.093073 -6.556224 0
M  V30 22 H 5.296061 6.647859 -12.766754 0
M  V30 23 H 6.181275 5.153122 -12.961427 0
M  V30 24 H 9.311459 7.999400 -6.075271 0
M  V30 25 H 9.966414 6.958027 -4.837609 0
M  V30 26 H 13.124788 8.167293 -7.584970 0
M  V30 27 H 12.575348 9.587760 -8.408942 0
M  V30 28 H 6.555199 6.790166 -10.545111 0
M  V30 29 H 7.463308 7.886884 -12.299752 0
M  V30 30 H 7.285511 7.281551 -13.924185 0
M  V30 31 H 6.975439 5.031126 -9.328043 0
M  V30 32 H 6.235384 3.911582 -10.458582 0
M  V30 33 H 9.234570 5.277097 -8.750236 0
M  V30 34 H 12.175399 7.952493 -4.998668 0
M  V30 35 H 10.380957 7.940061 -11.957249 0
M  V30 36 H 10.782273 9.990201 -6.783412 0
M  V30 37 H 12.398158 10.151011 -6.166549 0
M  V30 38 H 8.153029 3.858536 -11.795252 0
M  V30 39 H 8.881335 3.990105 -10.244187 0
M  V30 40 H 9.574036 6.730957 -13.184980 0
M  V30 41 H 8.665907 5.317877 -13.421580 0
M  V30 42 H 11.775516 9.214209 -10.389507 0
M  V30 43 H 5.180307 5.917753 -10.694724 0
M  V30 END ATOM
M  V30 BEGIN BOND
M  V30 1 1 3 1
M  V30 2 1 6 2
M  V30 3 1 7 1
M  V30 4 1 8 2
M  V30 5 1 9 6
M  V30 6 2 11 4
M  V30 7 1 11 7
M  V30 8 1 12 3
M  V30 9 1 12 10
M  V30 10 1 13 4
M  V30 11 1 14 5
M  V30 12 1 14 12
M  V30 13 1 15 9
M  V30 14 1 16 4
M  V30 15 1 16 15
M  V30 16 1 17 8
M  V30 17 1 17 16
M  V30 18 1 18 5
M  V30 19 2 18 7
M  V30 20 2 19 13
M  V30 21 1 19 18
M  V30 22 1 20 1
M  V30 23 1 21 1
M  V30 24 1 22 2
M  V30 25 1 23 2
M  V30 26 1 24 3
M  V30 27 1 25 3
M  V30 28 1 26 5
M  V30 29 1 27 5
M  V30 30 1 28 6
M  V30 31 1 29 8
M  V30 32 1 30 8
M  V30 33 1 31 9
M  V30 34 1 32 9
M  V30 35 1 33 11
M  V30 36 1 12 34 CFG=1
M  V30 37 1 35 13
M  V30 38 1 36 14
M  V30 39 1 37 14
M  V30 40 1 38 15
M  V30 41 1 39 15
M  V30 42 1 40 17
M  V30 43 1 41 17
M  V30 44 1 42 19
M  V30 45 1 43 6
M  V30 END BOND
M  V30 END CTAB
M  END
>  <i_epik_Tot_Q>  (1) 
1

>  <i_epik_Tot_abs_Q>  (1) 
1

>  <i_i_glide_confnum>  (1) 
12

>  <i_i_glide_lignum>  (1) 
111

>  <i_i_glide_posenum>  (1) 
216

>  <i_i_glide_rotatable_bonds>  (1) 
1

>  <i_lp_mmshare_version>  (1) 
72125

>  <i_m_source_file_index>  (1) 
69

>  <i_f3d_flags>  (1) 
0

>  <num_sample>  (1) 
100

>  <b_lp_Chiralities_Consistent>  (1) 
1

>  <r_epik_Charging_Adjusted_Penalty>  (1) 
0.015837352336264428

>  <r_epik_Ionization_Penalty>  (1) 
0.015894229435383624

>  <r_epik_Ionization_Penalty_Charging>  (1) 
0.015837352336264428

>  <r_epik_Ionization_Penalty_Neutral>  (1) 
5.6877099119197507e-05

>  <r_epik_State_Penalty>  (1) 
-0

>  <r_glide_ring_energy>  (1) 
2.4616932549850383

>  <r_i_docking_score>  (1) 
-6.2754390096478909

>  <r_i_glide_ecoul>  (1) 
-5.978416932465505

>  <r_i_glide_eff_state_penalty>  (1) 
-0

>  <r_i_glide_einternal>  (1) 
0.94189191463725352

>  <r_i_glide_emodel>  (1) 
-37.630970078875634

>  <r_i_glide_emodel_strain>  (1) 
0.58144428252048641

>  <r_i_glide_energy>  (1) 
-25.062182598554998

>  <r_i_glide_erotb>  (1) 
0.25598708870304271

>  <r_i_glide_esite>  (1) 
-0.087369444556598286

>  <r_i_glide_evdw>  (1) 
-19.083765666089491

>  <r_i_glide_gscore>  (1) 
-6.2754390096478909

>  <r_i_glide_gscore_strain>  (1) 
0

>  <r_i_glide_hbond>  (1) 
-0.20000000000000001

>  <r_i_glide_ligand_efficiency>  (1) 
-0.33028626366567848

>  <r_i_glide_ligand_efficiency_ln>  (1) 
-1.5909585730171569

>  <r_i_glide_ligand_efficiency_sa>  (1) 
-0.88133641051570755

>  <r_i_glide_lipo>  (1) 
-1.5407573600141318

>  <r_i_glide_metal>  (1) 
-0

>  <r_i_glide_rewards>  (1) 
-2.8523484706059019

>  <r_lp_Energy>  (1) 
46.335602999999999

>  <r_lp_tautomer_probability>  (1) 
1

>  <s_epik_cmdline>  (1) 
J2VwaWtfcHl0aG9uJywgJy1waHQnLCAnMS4wJywgJy1waCcsICc3LjQnLCAnLXRuJywgJzgnLCAnLW1hJywgJzUwMCcsICctaW1hZScsICc8aW5maWxlLm1hZT4nLCAnLW9tYWUnLCAnPG91dGZpbGUubWFlPic=

>  <s_epik_input>  (1) 
W0NIMl0xW0NIMl1bQ0BIXShGKVtDSDJdW0NIMl1jKGMxMilbY0hdW2NIXWMoW2NIXTIpTjNbQ0gyXVtDSDJdW05IXVtDSDJdW0NIMl1bQ0gyXTM=

>  <s_glide_docking_method>  (1) 
confgen

>  <s_i_glide_gridfile>  (1) 
gpcr_drd2_6luq_protein_autoprepared_prepared

>  <s_lp_Force_Field>  (1) 
S-OPLS

>  <s_lp_Variant>  (1) 
DiffSBDD_68-1

>  <s_m_source_file>  (1) 
generated_generic_title2_ligand_DiffSBDD_2026-06-23_prepared.sdf

>  <GenAI_Model>  (1) 
DiffSBDD

>  <Protein>  (1) 
generic_title2

$$$$
DiffSBDD_8
     RDKit          3D

  0  0  0  0  0  0  0  0  0  0999 V3000
M  V30 BEGIN CTAB
M  V30 COUNTS 62 64 0 0 1
M  V30 BEGIN ATOM
M  V30 1 C 9.659133 8.086187 -9.944180 0
M  V30 2 O 10.828065 9.177206 -6.372661 0
M  V30 3 C 7.572158 1.992805 -13.367361 0
M  V30 4 N 12.388028 8.390992 -7.768686 0
M  V30 5 C 6.513571 6.087589 -15.417672 0 CFG=2
M  V30 6 C 8.101083 4.762450 -13.322996 0
M  V30 7 N 8.975771 7.303206 -6.856022 0 CHG=1
M  V30 8 C 7.860737 5.078118 -18.015156 0
M  V30 9 C 6.054225 6.375980 -19.224402 0
M  V30 10 O 5.017383 7.218924 -16.780129 0
M  V30 11 C 6.658143 2.881714 -13.937019 0
M  V30 12 C 7.295063 3.650317 -18.048471 0
M  V30 13 O 6.002037 5.116587 -14.552743 0
M  V30 14 S 9.812591 6.754673 -12.234159 0
M  V30 15 C 6.536365 7.405264 -14.606406 0
M  V30 16 C 8.415901 6.262919 -13.306254 0 CFG=2
M  V30 17 N 8.975666 7.092973 -10.781856 0 CFG=1 CHG=1
M  V30 18 F 7.328093 0.662189 -13.392666 0
M  V30 19 C 3.702286 6.776223 -17.069235 0
M  V30 20 C 9.101734 6.083017 -9.719528 0
M  V30 21 C 7.196929 7.195247 -13.228060 0
M  V30 22 C 10.162491 6.958589 -9.050220 0 CFG=2
M  V30 23 C 6.806709 6.213490 -17.886061 0 CFG=1
M  V30 24 N 5.883931 6.060948 -16.737006 0
M  V30 25 C 11.196686 8.317701 -7.170499 0
M  V30 26 C 8.742899 2.474387 -12.784925 0
M  V30 27 C 9.008803 3.847720 -12.750115 0
M  V30 28 C 6.910803 4.267008 -13.940850 0
M  V30 29 C 10.286036 7.125655 -7.515538 0 CFG=1
M  V30 30 H 10.459307 8.643588 -10.433831 0
M  V30 31 H 8.975430 8.766687 -9.437748 0
M  V30 32 H 13.008446 9.162065 -7.560711 0
M  V30 33 H 12.668720 7.681631 -8.428377 0
M  V30 34 H 7.530599 5.783614 -15.616323 0
M  V30 35 H 9.089309 7.239576 -5.854487 0
M  V30 36 H 8.624318 8.223413 -7.073158 0
M  V30 37 H 8.426975 5.239763 -18.933153 0
M  V30 38 H 8.620665 5.142992 -17.238478 0
M  V30 39 H 6.753612 6.470691 -20.055938 0
M  V30 40 H 5.408222 5.522668 -19.432922 0
M  V30 41 H 5.440233 7.276623 -19.239989 0
M  V30 42 H 5.775421 2.499059 -14.384962 0
M  V30 43 H 8.054520 2.946374 -18.386259 0
M  V30 44 H 6.974245 3.329351 -17.058797 0
M  V30 45 H 6.447217 3.559953 -18.726758 0
M  V30 46 H 7.063109 8.165101 -15.181568 0
M  V30 47 H 5.514881 7.761327 -14.460463 0
M  V30 48 H 8.869473 6.390227 -14.272171 0
M  V30 49 H 3.015718 7.617485 -16.974170 0
M  V30 50 H 3.613157 6.390287 -18.083552 0
M  V30 51 H 3.381902 5.993800 -16.385370 0
M  V30 52 H 8.174730 5.989536 -9.151843 0
M  V30 53 H 9.452472 5.101583 -10.041795 0
M  V30 54 H 7.496353 8.176892 -12.861151 0
M  V30 55 H 6.479269 6.806168 -12.505751 0
M  V30 56 H 11.127202 6.655282 -9.452897 0
M  V30 57 H 7.353854 7.141970 -17.743181 0
M  V30 58 H 9.455651 1.786327 -12.385026 0
M  V30 59 H 9.925989 4.191491 -12.300614 0
M  V30 60 H 10.740807 6.223205 -7.103397 0
M  V30 61 H 7.996870 7.358525 -10.871124 0
M  V30 62 H 8.285172 6.629660 -7.161312 0
M  V30 END ATOM
M  V30 BEGIN BOND
M  V30 1 2 11 3
M  V30 2 1 12 8
M  V30 3 1 13 5
M  V30 4 1 15 5
M  V30 5 1 16 6
M  V30 6 1 16 14
M  V30 7 1 17 1
M  V30 8 1 17 14
M  V30 9 1 18 3
M  V30 10 1 19 10
M  V30 11 1 20 17
M  V30 12 1 21 15
M  V30 13 1 21 16
M  V30 14 1 22 1
M  V30 15 1 22 20
M  V30 16 1 23 8
M  V30 17 1 23 9
M  V30 18 1 24 5
M  V30 19 1 24 10
M  V30 20 1 24 23
M  V30 21 2 25 2
M  V30 22 1 25 4
M  V30 23 1 26 3
M  V30 24 1 27 6
M  V30 25 2 27 26
M  V30 26 2 28 6
M  V30 27 1 28 11
M  V30 28 1 28 13
M  V30 29 1 29 7
M  V30 30 1 29 22
M  V30 31 1 29 25
M  V30 32 1 30 1
M  V30 33 1 31 1
M  V30 34 1 32 4
M  V30 35 1 33 4
M  V30 36 1 5 34 CFG=3
M  V30 37 1 35 7
M  V30 38 1 36 7
M  V30 39 1 37 8
M  V30 40 1 38 8
M  V30 41 1 39 9
M  V30 42 1 40 9
M  V30 43 1 41 9
M  V30 44 1 42 11
M  V30 45 1 43 12
M  V30 46 1 44 12
M  V30 47 1 45 12
M  V30 48 1 46 15
M  V30 49 1 47 15
M  V30 50 1 16 48 CFG=3
M  V30 51 1 49 19
M  V30 52 1 50 19
M  V30 53 1 51 19
M  V30 54 1 52 20
M  V30 55 1 53 20
M  V30 56 1 54 21
M  V30 57 1 55 21
M  V30 58 1 22 56 CFG=3
M  V30 59 1 23 57 CFG=1
M  V30 60 1 58 26
M  V30 61 1 59 27
M  V30 62 1 29 60 CFG=1
M  V30 63 1 17 61 CFG=3
M  V30 64 1 62 7
M  V30 END BOND
M  V30 END CTAB
M  END
>  <i_epik_Tot_Q>  (1) 
2

>  <i_epik_Tot_abs_Q>  (1) 
2

>  <i_i_glide_confnum>  (1) 
358

>  <i_i_glide_lignum>  (1) 
13

>  <i_i_glide_posenum>  (1) 
150

>  <i_i_glide_rotatable_bonds>  (1) 
8

>  <i_lp_mmshare_version>  (1) 
72125

>  <i_m_source_file_index>  (1) 
9

>  <i_f3d_flags>  (1) 
0

>  <num_sample>  (1) 
100

>  <b_lp_Chiralities_Consistent>  (1) 
1

>  <r_epik_Charging_Adjusted_Penalty>  (1) 
1.8967099088143093

>  <r_epik_Ionization_Penalty>  (1) 
0.97230814562840162

>  <r_epik_Ionization_Penalty_Charging>  (1) 
0.97206898566559774

>  <r_epik_Ionization_Penalty_Neutral>  (1) 
0.00023915996280393024

>  <r_epik_State_Penalty>  (1) 
0.9246409231487116

>  <r_glide_ring_energy>  (1) 
0.47634900413209158

>  <r_i_docking_score>  (1) 
-6.2748637467673749

>  <r_i_glide_ecoul>  (1) 
-9.4510883321568357

>  <r_i_glide_eff_state_penalty>  (1) 
0.9246409231487116

>  <r_i_glide_einternal>  (1) 
16.004608440050163

>  <r_i_glide_emodel>  (1) 
-47.443209838088578

>  <r_i_glide_emodel_strain>  (1) 
3.6514381252912145

>  <r_i_glide_energy>  (1) 
-34.370154135818822

>  <r_i_glide_erotb>  (1) 
0.37853286695913396

>  <r_i_glide_esite>  (1) 
-0.18578132292005634

>  <r_i_glide_evdw>  (1) 
-24.919065803661983

>  <r_i_glide_gscore>  (1) 
-7.1995046699160863

>  <r_i_glide_gscore_strain>  (1) 
0

>  <r_i_glide_hbond>  (1) 
-0.14676607664217647

>  <r_i_glide_ligand_efficiency>  (1) 
-0.21637461195749569

>  <r_i_glide_ligand_efficiency_ln>  (1) 
-1.4367846811940852

>  <r_i_glide_ligand_efficiency_sa>  (1) 
-0.66477136096826017

>  <r_i_glide_lipo>  (1) 
-1.7098675494057745

>  <r_i_glide_metal>  (1) 
-0

>  <r_i_glide_rewards>  (1) 
-2.8720060479005887

>  <r_lp_Energy>  (1) 
49.910619999999994

>  <r_lp_tautomer_probability>  (1) 
1

>  <s_epik_Chemistry_Notes>  (1) 
This compound contains an acetal/aminal-like group ( X-CH(R)-Y where X, Y are N, S, or O) that may be acid/base labile, releasing an aldehyde. This compound has a N-S or N-O group and may undergo hydrolysis at high or low pH.

>  <s_epik_cmdline>  (1) 
J2VwaWtfcHl0aG9uJywgJy1waHQnLCAnMS4wJywgJy1waCcsICc3LjQnLCAnLXRuJywgJzgnLCAnLW1hJywgJzUwMCcsICctaW1hZScsICc8aW5maWxlLm1hZT4nLCAnLW9tYWUnLCAnPG91dGZpbGUubWFlPic=

>  <s_epik_input>  (1) 
Tz1DKFtOSDJdKVtDQEBIXShbTkgyXSlbQ0hdKFtDSDJdMSlbQ0gyXU4xU1tDQEBIXTJbQ0gyXVtDSDJdW0NASF0oTihPW0NIM10pW0NASF0oW0NIM10pW0NIMl1bQ0gzXSlPYyhjMjMpW2NIXWMoRilbY0hdW2NIXTM=

>  <s_glide_docking_method>  (1) 
confgen

>  <s_i_glide_gridfile>  (1) 
gpcr_drd2_6luq_protein_autoprepared_prepared

>  <s_lp_Force_Field>  (1) 
S-OPLS

>  <s_lp_Variant>  (1) 
DiffSBDD_8-3

>  <s_m_source_file>  (1) 
generated_generic_title2_ligand_DiffSBDD_2026-06-23_prepared.sdf

>  <GenAI_Model>  (1) 
DiffSBDD

>  <Protein>  (1) 
generic_title2

$$$$
DiffSBDD_63
     RDKit          3D

  0  0  0  0  0  0  0  0  0  0999 V3000
M  V30 BEGIN CTAB
M  V30 COUNTS 47 48 0 0 1
M  V30 BEGIN ATOM
M  V30 1 C 5.775438 6.928243 -17.225020 0
M  V30 2 C 7.125651 5.539493 -15.172877 0
M  V30 3 C 10.871014 8.261903 -6.599004 0
M  V30 4 C 10.623936 6.984472 -6.203063 0
M  V30 5 C 6.325294 6.662516 -14.862493 0
M  V30 6 C 9.883279 7.160041 -11.273175 0
M  V30 7 C 12.345441 9.471696 -3.390221 0
M  V30 8 F 5.123904 7.590227 -18.209454 0
M  V30 9 C 8.279960 5.536958 -11.996277 0
M  V30 10 C 9.775421 8.065119 -8.876933 0
M  V30 11 C 11.511023 9.218896 -5.674413 0
M  V30 12 O 11.775366 10.389944 -5.952940 0
M  V30 13 N 8.631869 5.649961 -13.207670 0
M  V30 14 C 5.931451 5.517012 -11.018383 0
M  V30 15 S 12.575396 8.389516 -1.975255 0
M  V30 16 C 5.652572 7.354778 -15.889068 0
M  V30 17 F 8.016065 4.044249 -16.824129 0
M  V30 18 C 6.575879 5.813871 -17.538399 0
M  V30 19 S 6.638669 3.838080 -13.062314 0
M  V30 20 C 7.113931 4.701018 -11.560098 0 CFG=1
M  V30 21 O 8.930748 6.147943 -10.947255 0
M  V30 22 C 10.668782 7.594353 -10.026654 0
M  V30 23 N 10.549698 8.755238 -7.854738 0
M  V30 24 N 11.775365 8.690325 -4.468956 0
M  V30 25 C 7.846186 4.777704 -14.062262 0 CFG=1
M  V30 26 C 7.251030 5.118987 -16.516321 0
M  V30 27 H 6.226764 6.990006 -13.838691 0
M  V30 28 H 10.602691 6.807569 -12.015215 0
M  V30 29 H 9.366835 8.020565 -11.703197 0
M  V30 30 H 13.298868 9.914405 -3.681744 0
M  V30 31 H 11.650733 10.261668 -3.101253 0
M  V30 32 H 9.057294 8.790219 -9.262019 0
M  V30 33 H 9.170385 7.249928 -8.481144 0
M  V30 34 H 6.175579 5.989243 -10.070577 0
M  V30 35 H 5.071805 4.873654 -10.833611 0
M  V30 36 H 5.618247 6.299491 -11.709036 0
M  V30 37 H 13.120996 9.332036 -1.195108 0
M  V30 38 H 5.039409 8.212018 -15.650829 0
M  V30 39 H 6.670708 5.489351 -18.563864 0
M  V30 40 H 7.450294 3.990231 -10.809108 0
M  V30 41 H 11.340855 8.402454 -10.317545 0
M  V30 42 H 11.306033 6.790224 -9.667996 0
M  V30 43 H 11.544585 7.726004 -4.287753 0
M  V30 44 H 8.521709 4.045424 -14.505399 0
M  V30 45 H 10.156348 6.278972 -6.871893 0
M  V30 46 H 10.882039 6.628792 -5.218502 0
M  V30 47 H 10.786369 9.716484 -8.053963 0
M  V30 END ATOM
M  V30 BEGIN BOND
M  V30 1 2 4 3
M  V30 2 1 5 2
M  V30 3 1 8 1
M  V30 4 1 11 3
M  V30 5 2 12 11
M  V30 6 2 13 9
M  V30 7 1 15 7
M  V30 8 1 16 1
M  V30 9 2 16 5
M  V30 10 2 18 1
M  V30 11 1 20 9
M  V30 12 1 20 14
M  V30 13 1 20 19
M  V30 14 1 21 6
M  V30 15 1 21 9
M  V30 16 1 22 6
M  V30 17 1 22 10
M  V30 18 1 23 3
M  V30 19 1 23 10
M  V30 20 1 24 7
M  V30 21 1 24 11
M  V30 22 1 25 2
M  V30 23 1 25 13
M  V30 24 1 25 19
M  V30 25 2 26 2
M  V30 26 1 26 17
M  V30 27 1 26 18
M  V30 28 1 27 5
M  V30 29 1 28 6
M  V30 30 1 29 6
M  V30 31 1 30 7
M  V30 32 1 31 7
M  V30 33 1 32 10
M  V30 34 1 33 10
M  V30 35 1 34 14
M  V30 36 1 35 14
M  V30 37 1 36 14
M  V30 38 1 37 15
M  V30 39 1 38 16
M  V30 40 1 39 18
M  V30 41 1 20 40 CFG=1
M  V30 42 1 41 22
M  V30 43 1 42 22
M  V30 44 1 43 24
M  V30 45 1 25 44 CFG=3
M  V30 46 1 45 4
M  V30 47 1 46 4
M  V30 48 1 47 23
M  V30 END BOND
M  V30 END CTAB
M  END
>  <i_epik_Tot_Q>  (1) 
0

>  <i_epik_Tot_abs_Q>  (1) 
0

>  <i_i_glide_confnum>  (1) 
54

>  <i_i_glide_lignum>  (1) 
100

>  <i_i_glide_posenum>  (1) 
377

>  <i_i_glide_rotatable_bonds>  (1) 
11

>  <i_lp_mmshare_version>  (1) 
72125

>  <i_m_source_file_index>  (1) 
64

>  <i_f3d_flags>  (1) 
0

>  <num_sample>  (1) 
100

>  <b_lp_Chiralities_Consistent>  (1) 
1

>  <r_epik_Charging_Adjusted_Penalty>  (1) 
0.013849271164821807

>  <r_epik_Ionization_Penalty>  (1) 
0.12391676861929035

>  <r_epik_Ionization_Penalty_Charging>  (1) 
0.013849271164821807

>  <r_epik_Ionization_Penalty_Neutral>  (1) 
0.11006749745446855

>  <r_epik_State_Penalty>  (1) 
-0

>  <r_glide_ring_energy>  (1) 
0

>  <r_i_docking_score>  (1) 
-6.2725748007789912

>  <r_i_glide_ecoul>  (1) 
-1.6275863769310936

>  <r_i_glide_eff_state_penalty>  (1) 
-0

>  <r_i_glide_einternal>  (1) 
4.916289875583951

>  <r_i_glide_emodel>  (1) 
-60.648137763833383

>  <r_i_glide_emodel_strain>  (1) 
0.27144728244252292

>  <r_i_glide_energy>  (1) 
-47.014906553226062

>  <r_i_glide_erotb>  (1) 
1.2167697096945405

>  <r_i_glide_esite>  (1) 
-0.016817935614047756

>  <r_i_glide_evdw>  (1) 
-45.387320176294971

>  <r_i_glide_gscore>  (1) 
-6.2725748007789912

>  <r_i_glide_gscore_strain>  (1) 
0

>  <r_i_glide_hbond>  (1) 
-0.23734032016019271

>  <r_i_glide_ligand_efficiency>  (1) 
-0.24125287695303813

>  <r_i_glide_ligand_efficiency_ln>  (1) 
-1.4730936099662817

>  <r_i_glide_ligand_efficiency_sa>  (1) 
-0.71471069946534271

>  <r_i_glide_lipo>  (1) 
-2.2594542777785658

>  <r_i_glide_metal>  (1) 
-0

>  <r_i_glide_rewards>  (1) 
-2.4622280115663129

>  <r_lp_Energy>  (1) 
18.833002999999998

>  <r_lp_tautomer_probability>  (1) 
1

>  <s_epik_Chemistry_Notes>  (1) 
This compound has an imine and may undergo hydrolysis. This compound contains an acetal/aminal-like group ( X-CH(R)-Y where X, Y are N, S, or O) that may be acid/base labile, releasing an aldehyde.

>  <s_epik_cmdline>  (1) 
J2VwaWtfcHl0aG9uJywgJy1waHQnLCAnMS4wJywgJy1waCcsICc3LjQnLCAnLXRuJywgJzgnLCAnLW1hJywgJzUwMCcsICctaW1hZScsICc8aW5maWxlLm1hZT4nLCAnLW9tYWUnLCAnPG91dGZpbGUubWFlPic=

>  <s_epik_input>  (1) 
RmMxW2NIXVtjSF1jKGMoRilbY0hdMSlbQ0BIXShTW0NAQEhdMltDSDNdKU49QzJPW0NIMl1bQ0gyXVtDSDJdW05IXUMoPVtDSDJdKUMoPU8pW05IXVtDSDJdW1NIXQ==

>  <s_glide_docking_method>  (1) 
confgen

>  <s_i_glide_gridfile>  (1) 
gpcr_drd2_6luq_protein_autoprepared_prepared

>  <s_lp_Force_Field>  (1) 
S-OPLS

>  <s_lp_Variant>  (1) 
DiffSBDD_63-1

>  <s_m_source_file>  (1) 
generated_generic_title2_ligand_DiffSBDD_2026-06-23_prepared.sdf

>  <GenAI_Model>  (1) 
DiffSBDD

>  <Protein>  (1) 
generic_title2

$$$$
DiffSBDD_0
     RDKit          3D

  0  0  0  0  0  0  0  0  0  0999 V3000
M  V30 BEGIN CTAB
M  V30 COUNTS 39 41 0 0 1
M  V30 BEGIN ATOM
M  V30 1 N 10.720230 8.869464 -6.543526 0
M  V30 2 C 11.784774 7.136359 -2.304332 0
M  V30 3 C 10.265737 6.484814 -6.240781 0
M  V30 4 C 9.373390 7.760938 -8.236902 0
M  V30 5 O 7.109285 7.130524 -13.219002 0
M  V30 6 C 12.442668 9.365478 -3.373762 0
M  V30 7 N 12.242354 7.891918 -3.469449 0
M  V30 8 C 9.455326 5.222877 -9.433154 0
M  V30 9 C 11.968837 10.013740 -4.785017 0
M  V30 10 C 11.528072 7.690790 -4.621516 0
M  V30 11 C 11.375456 8.794605 -5.365491 0
M  V30 12 C 10.975403 6.482486 -5.031095 0
M  V30 13 C 10.161583 7.700315 -6.957937 0
M  V30 14 C 8.941355 4.847381 -10.822030 0
M  V30 15 C 7.854411 5.993569 -12.838510 0
M  V30 16 S 10.175409 6.884574 -9.597836 0 CHG=1
M  V30 17 C 9.138820 7.299454 -11.032482 0
M  V30 18 C 8.228705 6.096362 -11.352771 0 CFG=2
M  V30 19 H 10.900701 6.523016 -2.474106 0
M  V30 20 H 12.581374 6.475315 -1.962412 0
M  V30 21 H 11.548213 7.817968 -1.487725 0
M  V30 22 H 9.799725 5.590226 -6.607937 0
M  V30 23 H 9.144268 8.790326 -8.513651 0
M  V30 24 H 8.458658 7.249141 -7.985019 0
M  V30 25 H 6.343241 7.190214 -12.666017 0
M  V30 26 H 11.851231 9.772339 -2.552274 0
M  V30 27 H 13.487867 9.590225 -3.172418 0
M  V30 28 H 10.175394 4.509529 -9.033766 0
M  V30 29 H 8.607945 5.236071 -8.748020 0
M  V30 30 H 12.790966 10.344578 -5.417841 0
M  V30 31 H 11.219353 10.795944 -4.672019 0
M  V30 32 H 11.081440 5.590224 -4.443339 0
M  V30 33 H 8.270220 3.990227 -10.784939 0
M  V30 34 H 9.775386 4.579329 -11.472149 0
M  V30 35 H 7.252016 5.102413 -13.018205 0
M  V30 36 H 8.742728 5.914567 -13.466618 0
M  V30 37 H 9.815157 7.482134 -11.868327 0
M  V30 38 H 8.575419 8.219860 -10.876492 0
M  V30 39 H 7.304041 6.193115 -10.785025 0
M  V30 END ATOM
M  V30 BEGIN BOND
M  V30 1 1 7 2
M  V30 2 1 7 6
M  V30 3 1 9 6
M  V30 4 1 10 7
M  V30 5 1 11 1
M  V30 6 1 11 9
M  V30 7 2 11 10
M  V30 8 2 12 3
M  V30 9 1 12 10
M  V30 10 2 13 1
M  V30 11 1 13 3
M  V30 12 1 13 4
M  V30 13 1 14 8
M  V30 14 1 15 5
M  V30 15 1 16 4 CFG=1
M  V30 16 1 16 8
M  V30 17 1 17 16
M  V30 18 1 18 14
M  V30 19 1 18 15
M  V30 20 1 18 17
M  V30 21 1 19 2
M  V30 22 1 20 2
M  V30 23 1 21 2
M  V30 24 1 22 3
M  V30 25 1 23 4
M  V30 26 1 24 4
M  V30 27 1 25 5
M  V30 28 1 26 6
M  V30 29 1 27 6
M  V30 30 1 28 8
M  V30 31 1 29 8
M  V30 32 1 30 9
M  V30 33 1 31 9
M  V30 34 1 32 12
M  V30 35 1 33 14
M  V30 36 1 34 14
M  V30 37 1 35 15
M  V30 38 1 36 15
M  V30 39 1 37 17
M  V30 40 1 38 17
M  V30 41 1 18 39 CFG=1
M  V30 END BOND
M  V30 END CTAB
M  END
>  <i_epik_Tot_Q>  (1) 
1

>  <i_epik_Tot_abs_Q>  (1) 
1

>  <i_i_glide_confnum>  (1) 
3

>  <i_i_glide_lignum>  (1) 
1

>  <i_i_glide_posenum>  (1) 
218

>  <i_i_glide_rotatable_bonds>  (1) 
4

>  <i_lp_mmshare_version>  (1) 
72125

>  <i_m_source_file_index>  (1) 
1

>  <i_f3d_flags>  (1) 
0

>  <num_sample>  (1) 
100

>  <b_lp_Chiralities_Consistent>  (1) 
1

>  <r_epik_Charging_Adjusted_Penalty>  (1) 
0

>  <r_epik_Ionization_Penalty>  (1) 
0.00029429108255977062

>  <r_epik_Ionization_Penalty_Charging>  (1) 
0

>  <r_epik_Ionization_Penalty_Neutral>  (1) 
0.00029429108255977062

>  <r_epik_State_Penalty>  (1) 
-0

>  <r_glide_ring_energy>  (1) 
0

>  <r_i_docking_score>  (1) 
-6.2590529478290025

>  <r_i_glide_ecoul>  (1) 
-6.2748117209754417

>  <r_i_glide_eff_state_penalty>  (1) 
-0

>  <r_i_glide_einternal>  (1) 
2.3406827392589147

>  <r_i_glide_emodel>  (1) 
-41.044794537610159

>  <r_i_glide_emodel_strain>  (1) 
1.4631182384403303

>  <r_i_glide_energy>  (1) 
-30.797757312518616

>  <r_i_glide_erotb>  (1) 
0.7579090882420203

>  <r_i_glide_esite>  (1) 
-0.058171625525423612

>  <r_i_glide_evdw>  (1) 
-24.522945591543174

>  <r_i_glide_gscore>  (1) 
-6.2590529478290025

>  <r_i_glide_gscore_strain>  (1) 
0

>  <r_i_glide_hbond>  (1) 
0

>  <r_i_glide_ligand_efficiency>  (1) 
-0.34772516376827789

>  <r_i_glide_ligand_efficiency_ln>  (1) 
-1.6088572859715016

>  <r_i_glide_ligand_efficiency_sa>  (1) 
-0.91129773049559359

>  <r_i_glide_lipo>  (1) 
-2.0948795471716601

>  <r_i_glide_metal>  (1) 
-0

>  <r_i_glide_rewards>  (1) 
-2.6965418256504634

>  <r_lp_Energy>  (1) 
8.6419370000000004

>  <r_lp_tautomer_probability>  (1) 
1

>  <s_epik_cmdline>  (1) 
J2VwaWtfcHl0aG9uJywgJy1waHQnLCAnMS4wJywgJy1waCcsICc3LjQnLCAnLXRuJywgJzgnLCAnLW1hJywgJzUwMCcsICctaW1hZScsICc8aW5maWxlLm1hZT4nLCAnLW9tYWUnLCAnPG91dGZpbGUubWFlPic=

>  <s_epik_input>  (1) 
W0NIM11OMVtDSDJdW0NIMl1jKGMxMiluYyhbY0hdW2NIXTIpW0NIMl1bUytdM1tDSDJdW0NIMl1bQ0BASF0oW0NIMl0zKVtDSDJdW09IXQ==

>  <s_glide_docking_method>  (1) 
confgen

>  <s_i_glide_gridfile>  (1) 
gpcr_drd2_6luq_protein_autoprepared_prepared

>  <s_lp_Force_Field>  (1) 
S-OPLS

>  <s_lp_Variant>  (1) 
DiffSBDD_0-1

>  <s_m_source_file>  (1) 
generated_generic_title2_ligand_DiffSBDD_2026-06-23_prepared.sdf

>  <GenAI_Model>  (1) 
DiffSBDD

>  <Protein>  (1) 
generic_title2

$$$$
DiffSBDD_63
     RDKit          3D

  0  0  0  0  0  0  0  0  0  0999 V3000
M  V30 BEGIN CTAB
M  V30 COUNTS 47 48 0 0 1
M  V30 BEGIN ATOM
M  V30 1 C 5.237726 7.045694 -18.161099 0
M  V30 2 C 6.490924 5.931366 -15.888631 0
M  V30 3 C 11.415416 8.227264 -6.925758 0
M  V30 4 C 11.267603 6.903450 -6.652051 0
M  V30 5 C 5.600575 7.020180 -15.751279 0
M  V30 6 C 9.717293 6.887429 -11.138000 0
M  V30 7 C 12.077082 9.358599 -3.422292 0
M  V30 8 F 4.633705 7.581090 -19.248085 0
M  V30 9 C 8.144468 6.012762 -12.768318 0
M  V30 10 C 11.231806 7.985999 -9.437791 0
M  V30 11 C 11.663504 9.190225 -5.832644 0
M  V30 12 O 11.775410 10.404196 -5.985027 0
M  V30 13 N 7.117562 6.200334 -13.478210 0
M  V30 14 C 9.065210 3.697462 -12.360172 0
M  V30 15 S 12.480115 8.204425 -2.094873 0
M  V30 16 C 4.975731 7.568982 -16.883166 0
M  V30 17 F 7.578955 4.344110 -17.337599 0
M  V30 18 C 6.122615 5.964266 -18.310602 0
M  V30 19 S 8.881925 4.790228 -14.884951 0
M  V30 20 C 9.215241 5.015248 -13.141172 0 CFG=1
M  V30 21 O 8.377639 6.688946 -11.585024 0
M  V30 22 C 9.775431 7.743845 -9.866267 0
M  V30 23 N 11.350659 8.757808 -8.209473 0
M  V30 24 N 11.775408 8.603948 -4.627696 0
M  V30 25 C 7.147913 5.315601 -14.639937 0 CFG=2
M  V30 26 C 6.747168 5.400153 -17.181752 0
M  V30 27 H 5.388119 7.429019 -14.774370 0
M  V30 28 H 10.175410 5.930479 -10.900252 0
M  V30 29 H 10.304332 7.368406 -11.922925 0
M  V30 30 H 12.949369 9.990225 -3.589198 0
M  V30 31 H 11.236374 9.990251 -3.134604 0
M  V30 32 H 11.775381 7.046656 -9.350456 0
M  V30 33 H 11.744301 8.546950 -10.220172 0
M  V30 34 H 9.240045 3.838951 -11.293481 0
M  V30 35 H 9.775409 2.950385 -12.706620 0
M  V30 36 H 8.066853 3.273361 -12.473764 0
M  V30 37 H 12.876502 9.141978 -1.226678 0
M  V30 38 H 4.291082 8.390224 -16.769605 0
M  V30 39 H 6.317967 5.559761 -19.292518 0
M  V30 40 H 10.225527 5.410982 -13.078848 0
M  V30 41 H 9.233722 7.238114 -9.065832 0
M  V30 42 H 9.268687 8.694950 -10.033053 0
M  V30 43 H 11.675476 7.603900 -4.550790 0
M  V30 44 H 6.572202 4.418605 -14.403980 0
M  V30 45 H 11.086126 6.192877 -7.443979 0
M  V30 46 H 11.323112 6.515110 -5.647519 0
M  V30 47 H 11.476433 9.754906 -8.316664 0
M  V30 END ATOM
M  V30 BEGIN BOND
M  V30 1 2 4 3
M  V30 2 1 5 2
M  V30 3 1 8 1
M  V30 4 1 11 3
M  V30 5 2 12 11
M  V30 6 2 13 9
M  V30 7 1 15 7
M  V30 8 1 16 1
M  V30 9 2 16 5
M  V30 10 2 18 1
M  V30 11 1 20 9
M  V30 12 1 20 14
M  V30 13 1 20 19
M  V30 14 1 21 6
M  V30 15 1 21 9
M  V30 16 1 22 6
M  V30 17 1 22 10
M  V30 18 1 23 3
M  V30 19 1 23 10
M  V30 20 1 24 7
M  V30 21 1 24 11
M  V30 22 1 25 2
M  V30 23 1 25 13
M  V30 24 1 25 19
M  V30 25 2 26 2
M  V30 26 1 26 17
M  V30 27 1 26 18
M  V30 28 1 27 5
M  V30 29 1 28 6
M  V30 30 1 29 6
M  V30 31 1 30 7
M  V30 32 1 31 7
M  V30 33 1 32 10
M  V30 34 1 33 10
M  V30 35 1 34 14
M  V30 36 1 35 14
M  V30 37 1 36 14
M  V30 38 1 37 15
M  V30 39 1 38 16
M  V30 40 1 39 18
M  V30 41 1 20 40 CFG=3
M  V30 42 1 41 22
M  V30 43 1 42 22
M  V30 44 1 43 24
M  V30 45 1 25 44 CFG=1
M  V30 46 1 45 4
M  V30 47 1 46 4
M  V30 48 1 47 23
M  V30 END BOND
M  V30 END CTAB
M  END
>  <i_epik_Tot_Q>  (1) 
0

>  <i_epik_Tot_abs_Q>  (1) 
0

>  <i_i_glide_confnum>  (1) 
356

>  <i_i_glide_lignum>  (1) 
101

>  <i_i_glide_posenum>  (1) 
331

>  <i_i_glide_rotatable_bonds>  (1) 
11

>  <i_lp_mmshare_version>  (1) 
72125

>  <i_m_source_file_index>  (1) 
64

>  <i_f3d_flags>  (1) 
0

>  <num_sample>  (1) 
100

>  <b_lp_Chiralities_Consistent>  (1) 
1

>  <r_epik_Charging_Adjusted_Penalty>  (1) 
0.013849271164821807

>  <r_epik_Ionization_Penalty>  (1) 
0.12391676861929035

>  <r_epik_Ionization_Penalty_Charging>  (1) 
0.013849271164821807

>  <r_epik_Ionization_Penalty_Neutral>  (1) 
0.11006749745446855

>  <r_epik_State_Penalty>  (1) 
-0

>  <r_glide_ring_energy>  (1) 
0

>  <r_i_docking_score>  (1) 
-6.2567830793611217

>  <r_i_glide_ecoul>  (1) 
-0.866937690959246

>  <r_i_glide_eff_state_penalty>  (1) 
-0

>  <r_i_glide_einternal>  (1) 
6.3783575698355159

>  <r_i_glide_emodel>  (1) 
-56.681016539218454

>  <r_i_glide_emodel_strain>  (1) 
2.7634670526932439

>  <r_i_glide_energy>  (1) 
-45.331323964109657

>  <r_i_glide_erotb>  (1) 
1.2167697096945405

>  <r_i_glide_esite>  (1) 
-0.0073546657832407811

>  <r_i_glide_evdw>  (1) 
-44.46438627315041

>  <r_i_glide_gscore>  (1) 
-6.2567830793611217

>  <r_i_glide_gscore_strain>  (1) 
0

>  <r_i_glide_hbond>  (1) 
-0.048708144367665213

>  <r_i_glide_ligand_efficiency>  (1) 
-0.24064550305235083

>  <r_i_glide_ligand_efficiency_ln>  (1) 
-1.4693849760081594

>  <r_i_glide_ligand_efficiency_sa>  (1) 
-0.71291135667250338

>  <r_i_glide_lipo>  (1) 
-2.8371282099572794

>  <r_i_glide_metal>  (1) 
-0

>  <r_i_glide_rewards>  (1) 
-2.2271018016460697

>  <r_lp_Energy>  (1) 
17.542904

>  <r_lp_tautomer_probability>  (1) 
1

>  <s_epik_Chemistry_Notes>  (1) 
This compound has an imine and may undergo hydrolysis. This compound contains an acetal/aminal-like group ( X-CH(R)-Y where X, Y are N, S, or O) that may be acid/base labile, releasing an aldehyde.

>  <s_epik_cmdline>  (1) 
J2VwaWtfcHl0aG9uJywgJy1waHQnLCAnMS4wJywgJy1waCcsICc3LjQnLCAnLXRuJywgJzgnLCAnLW1hJywgJzUwMCcsICctaW1hZScsICc8aW5maWxlLm1hZT4nLCAnLW9tYWUnLCAnPG91dGZpbGUubWFlPic=

>  <s_epik_input>  (1) 
RmMxW2NIXVtjSF1jKGMoRilbY0hdMSlbQ0BIXShTW0NAQEhdMltDSDNdKU49QzJPW0NIMl1bQ0gyXVtDSDJdW05IXUMoPVtDSDJdKUMoPU8pW05IXVtDSDJdW1NIXQ==

>  <s_glide_docking_method>  (1) 
confgen

>  <s_i_glide_gridfile>  (1) 
gpcr_drd2_6luq_protein_autoprepared_prepared

>  <s_lp_Force_Field>  (1) 
S-OPLS

>  <s_lp_Variant>  (1) 
DiffSBDD_63-2

>  <s_m_source_file>  (1) 
generated_generic_title2_ligand_DiffSBDD_2026-06-23_prepared.sdf

>  <GenAI_Model>  (1) 
DiffSBDD

>  <Protein>  (1) 
generic_title2

$$$$
DiffSBDD_68
     RDKit          3D

  0  0  0  0  0  0  0  0  0  0999 V3000
M  V30 BEGIN CTAB
M  V30 COUNTS 43 45 0 0 1
M  V30 BEGIN ATOM
M  V30 1 C 10.420484 6.326558 -6.936653 0
M  V30 2 C 5.778065 5.990718 -11.853947 0
M  V30 3 C 10.109214 7.489345 -5.985209 0
M  V30 4 C 9.577944 6.276089 -10.698119 0
M  V30 5 C 12.385725 8.258722 -8.014999 0
M  V30 6 N 6.486655 7.283078 -11.985041 0 CHG=1
M  V30 7 C 10.445547 6.654575 -8.423626 0
M  V30 8 C 6.413908 5.082492 -10.785019 0
M  V30 9 C 7.593018 7.340152 -12.971925 0
M  V30 10 F 10.975404 9.319960 -4.785047 0
M  V30 11 C 9.550260 5.996119 -9.302762 0
M  V30 12 C 11.308323 8.389562 -5.676654 0 CFG=2
M  V30 13 C 10.493700 7.243769 -11.184776 0
M  V30 14 C 11.775411 9.125760 -6.921378 0
M  V30 15 C 8.535769 6.119856 -12.945579 0
M  V30 16 N 8.718797 5.578691 -11.608323 0
M  V30 17 C 7.812384 4.556139 -11.106475 0
M  V30 18 C 11.375388 7.590230 -8.934576 0
M  V30 19 C 11.384721 7.888642 -10.307267 0
M  V30 20 H 9.635460 5.589462 -6.785001 0
M  V30 21 H 11.352941 5.834773 -6.656255 0
M  V30 22 H 5.677239 5.489238 -12.817236 0
M  V30 23 H 4.774040 6.228183 -11.509562 0
M  V30 24 H 9.262153 8.067281 -6.359322 0
M  V30 25 H 9.779011 7.050364 -5.045678 0
M  V30 26 H 13.019549 7.490349 -7.585029 0
M  V30 27 H 13.048897 8.874625 -8.622746 0
M  V30 28 H 5.812541 7.992650 -12.226121 0
M  V30 29 H 5.758452 4.227202 -10.616202 0
M  V30 30 H 6.458693 5.590255 -9.826114 0
M  V30 31 H 7.179689 7.457663 -13.973939 0
M  V30 32 H 8.159906 8.248715 -12.766780 0
M  V30 33 H 8.857565 5.275301 -8.904102 0
M  V30 34 H 12.102420 7.828126 -5.191983 0
M  V30 35 H 10.534659 7.477446 -12.234136 0
M  V30 36 H 10.908318 9.590228 -7.350826 0
M  V30 37 H 12.481880 9.901616 -6.626624 0
M  V30 38 H 9.477186 6.285026 -13.459953 0
M  V30 39 H 8.065852 5.331964 -13.534992 0
M  V30 40 H 7.712786 3.817273 -11.902535 0
M  V30 41 H 8.233671 3.990233 -10.283750 0
M  V30 42 H 12.093109 8.605210 -10.695233 0
M  V30 43 H 6.843193 7.512333 -11.047819 0
M  V30 END ATOM
M  V30 BEGIN BOND
M  V30 1 1 3 1
M  V30 2 1 6 2
M  V30 3 1 7 1
M  V30 4 1 8 2
M  V30 5 1 9 6
M  V30 6 2 11 4
M  V30 7 1 11 7
M  V30 8 1 12 3
M  V30 9 1 12 10
M  V30 10 1 13 4
M  V30 11 1 14 5
M  V30 12 1 14 12
M  V30 13 1 15 9
M  V30 14 1 16 4
M  V30 15 1 16 15
M  V30 16 1 17 8
M  V30 17 1 17 16
M  V30 18 1 18 5
M  V30 19 2 18 7
M  V30 20 2 19 13
M  V30 21 1 19 18
M  V30 22 1 20 1
M  V30 23 1 21 1
M  V30 24 1 22 2
M  V30 25 1 23 2
M  V30 26 1 24 3
M  V30 27 1 25 3
M  V30 28 1 26 5
M  V30 29 1 27 5
M  V30 30 1 28 6
M  V30 31 1 29 8
M  V30 32 1 30 8
M  V30 33 1 31 9
M  V30 34 1 32 9
M  V30 35 1 33 11
M  V30 36 1 12 34 CFG=1
M  V30 37 1 35 13
M  V30 38 1 36 14
M  V30 39 1 37 14
M  V30 40 1 38 15
M  V30 41 1 39 15
M  V30 42 1 40 17
M  V30 43 1 41 17
M  V30 44 1 42 19
M  V30 45 1 43 6
M  V30 END BOND
M  V30 END CTAB
M  END
>  <i_epik_Tot_Q>  (1) 
1

>  <i_epik_Tot_abs_Q>  (1) 
1

>  <i_i_glide_confnum>  (1) 
3

>  <i_i_glide_lignum>  (1) 
111

>  <i_i_glide_posenum>  (1) 
388

>  <i_i_glide_rotatable_bonds>  (1) 
1

>  <i_lp_mmshare_version>  (1) 
72125

>  <i_m_source_file_index>  (1) 
69

>  <i_f3d_flags>  (1) 
0

>  <num_sample>  (1) 
100

>  <b_lp_Chiralities_Consistent>  (1) 
1

>  <r_epik_Charging_Adjusted_Penalty>  (1) 
0.015837352336264428

>  <r_epik_Ionization_Penalty>  (1) 
0.015894229435383624

>  <r_epik_Ionization_Penalty_Charging>  (1) 
0.015837352336264428

>  <r_epik_Ionization_Penalty_Neutral>  (1) 
5.6877099119197507e-05

>  <r_epik_State_Penalty>  (1) 
-0

>  <r_glide_ring_energy>  (1) 
1.3249271458467016

>  <r_i_docking_score>  (1) 
-6.2562928085868599

>  <r_i_glide_ecoul>  (1) 
-5.1352518220066701

>  <r_i_glide_eff_state_penalty>  (1) 
-0

>  <r_i_glide_einternal>  (1) 
0.33018736910875157

>  <r_i_glide_emodel>  (1) 
-41.682508261909256

>  <r_i_glide_emodel_strain>  (1) 
0.10920108042090249

>  <r_i_glide_energy>  (1) 
-28.377183165372962

>  <r_i_glide_erotb>  (1) 
0.25598708870304271

>  <r_i_glide_esite>  (1) 
-0.10032668953130985

>  <r_i_glide_evdw>  (1) 
-23.241931343366293

>  <r_i_glide_gscore>  (1) 
-6.2562928085868599

>  <r_i_glide_gscore_strain>  (1) 
0

>  <r_i_glide_hbond>  (1) 
-0.20000000000000001

>  <r_i_glide_ligand_efficiency>  (1) 
-0.32927856887299262

>  <r_i_glide_ligand_efficiency_ln>  (1) 
-1.5861045998254923

>  <r_i_glide_ligand_efficiency_sa>  (1) 
-0.87864747606949611

>  <r_i_glide_lipo>  (1) 
-1.3353597063891487

>  <r_i_glide_metal>  (1) 
-0

>  <r_i_glide_rewards>  (1) 
-2.9442091609001273

>  <r_lp_Energy>  (1) 
46.335602999999999

>  <r_lp_tautomer_probability>  (1) 
1

>  <s_epik_cmdline>  (1) 
J2VwaWtfcHl0aG9uJywgJy1waHQnLCAnMS4wJywgJy1waCcsICc3LjQnLCAnLXRuJywgJzgnLCAnLW1hJywgJzUwMCcsICctaW1hZScsICc8aW5maWxlLm1hZT4nLCAnLW9tYWUnLCAnPG91dGZpbGUubWFlPic=

>  <s_epik_input>  (1) 
W0NIMl0xW0NIMl1bQ0BIXShGKVtDSDJdW0NIMl1jKGMxMilbY0hdW2NIXWMoW2NIXTIpTjNbQ0gyXVtDSDJdW05IXVtDSDJdW0NIMl1bQ0gyXTM=

>  <s_glide_docking_method>  (1) 
confgen

>  <s_i_glide_gridfile>  (1) 
gpcr_drd2_6luq_protein_autoprepared_prepared

>  <s_lp_Force_Field>  (1) 
S-OPLS

>  <s_lp_Variant>  (1) 
DiffSBDD_68-1

>  <s_m_source_file>  (1) 
generated_generic_title2_ligand_DiffSBDD_2026-06-23_prepared.sdf

>  <GenAI_Model>  (1) 
DiffSBDD

>  <Protein>  (1) 
generic_title2

$$$$
DiffSBDD_29
     RDKit          3D

  0  0  0  0  0  0  0  0  0  0999 V3000
M  V30 BEGIN CTAB
M  V30 COUNTS 62 63 0 0 1
M  V30 BEGIN ATOM
M  V30 1 C 7.341847 6.736848 -12.738433 0
M  V30 2 C 9.940421 7.426650 -8.368832 0
M  V30 3 C 7.939896 5.359521 -12.382051 0
M  V30 4 O 5.863786 7.530188 -16.302841 0
M  V30 5 C 6.315441 6.390248 -16.166807 0
M  V30 6 F 4.575441 5.733739 -20.476719 0
M  V30 7 C 9.775501 6.960320 -5.888714 0
M  V30 8 C 7.004935 5.341712 -20.323203 0
M  V30 9 C 10.957721 7.711659 -5.243745 0
M  V30 10 C 10.039545 6.358462 -7.272203 0
M  V30 11 N 10.157844 6.854466 -9.688207 0
M  V30 12 C 7.964599 5.936894 -18.084597 0
M  V30 13 O 10.323062 7.990244 -10.561128 0
M  V30 14 C 12.688420 7.691896 -3.329073 0
M  V30 15 C 11.675421 6.883445 -4.162430 0
M  V30 16 C 9.200611 5.460884 -11.497128 0
M  V30 17 C 5.649225 5.635395 -19.678281 0
M  V30 18 C 8.296703 4.615662 -13.686500 0
M  V30 19 C 6.593516 5.585854 -17.468312 0 CFG=2
M  V30 20 C 8.148137 5.074120 -19.331027 0
M  V30 21 N 6.545014 5.872224 -14.921849 0
M  V30 22 N 5.505805 5.798819 -18.418728 0
M  V30 23 N 8.975429 6.115324 -10.183711 0 CHG=1
M  V30 24 C 6.150657 6.600814 -13.704546 0
M  V30 25 C 7.142649 4.542028 -14.704776 0
M  V30 26 C 12.045936 8.645641 -2.310759 0
M  V30 27 H 7.009455 7.252795 -11.837124 0
M  V30 28 H 8.104624 7.371942 -13.191284 0
M  V30 29 H 10.704857 8.182637 -8.181859 0
M  V30 30 H 8.976168 7.938091 -8.329592 0
M  V30 31 H 7.183117 4.780204 -11.849976 0
M  V30 32 H 8.930385 7.642540 -5.985033 0
M  V30 33 H 9.437174 6.168756 -5.220495 0
M  V30 34 H 6.900550 4.502552 -21.011003 0
M  V30 35 H 7.262479 6.207880 -20.933992 0
M  V30 36 H 11.668808 8.040302 -6.001815 0
M  V30 37 H 10.575636 8.625433 -4.791262 0
M  V30 38 H 9.292335 5.586144 -7.453958 0
M  V30 39 H 11.010749 5.862533 -7.291757 0
M  V30 40 H 8.008228 6.986834 -18.385018 0
M  V30 41 H 8.773116 5.757951 -17.374042 0
M  V30 42 H 9.498957 8.448262 -10.467606 0
M  V30 43 H 13.325689 6.995218 -2.784984 0
M  V30 44 H 13.348155 8.259968 -3.985025 0
M  V30 45 H 10.954047 6.422522 -3.486181 0
M  V30 46 H 12.175363 6.050828 -4.655095 0
M  V30 47 H 9.971568 5.989806 -12.059394 0
M  V30 48 H 9.609553 4.467912 -11.305952 0
M  V30 49 H 9.144086 5.112451 -14.163098 0
M  V30 50 H 8.633751 3.604757 -13.453184 0
M  V30 51 H 6.575425 4.519301 -17.267316 0
M  V30 52 H 8.151831 4.020780 -19.047409 0
M  V30 53 H 9.111740 5.271949 -19.801298 0
M  V30 54 H 8.758146 5.418759 -9.485949 0
M  V30 55 H 5.351464 6.040388 -13.219118 0
M  V30 56 H 5.737163 7.590192 -13.901966 0
M  V30 57 H 6.362830 3.873464 -14.338340 0
M  V30 58 H 7.569466 4.071030 -15.584714 0
M  V30 59 H 12.808775 9.137960 -1.706702 0
M  V30 60 H 11.465239 9.427940 -2.799220 0
M  V30 61 H 11.384411 8.112408 -1.627318 0
M  V30 62 H 8.201014 6.776801 -10.205950 0
M  V30 END ATOM
M  V30 BEGIN BOND
M  V30 1 1 3 1
M  V30 2 2 5 4
M  V30 3 1 9 7
M  V30 4 1 10 2
M  V30 5 1 10 7
M  V30 6 1 11 2
M  V30 7 1 13 11
M  V30 8 1 15 9
M  V30 9 1 15 14
M  V30 10 1 16 3
M  V30 11 1 17 6
M  V30 12 1 17 8
M  V30 13 1 18 3
M  V30 14 1 19 5
M  V30 15 1 19 12
M  V30 16 1 20 8
M  V30 17 1 20 12
M  V30 18 1 21 5
M  V30 19 2 22 17
M  V30 20 1 22 19
M  V30 21 1 23 11
M  V30 22 1 23 16
M  V30 23 1 24 1
M  V30 24 1 24 21
M  V30 25 1 25 18
M  V30 26 1 25 21
M  V30 27 1 26 14
M  V30 28 1 27 1
M  V30 29 1 28 1
M  V30 30 1 29 2
M  V30 31 1 30 2
M  V30 32 1 31 3
M  V30 33 1 32 7
M  V30 34 1 33 7
M  V30 35 1 34 8
M  V30 36 1 35 8
M  V30 37 1 36 9
M  V30 38 1 37 9
M  V30 39 1 38 10
M  V30 40 1 39 10
M  V30 41 1 40 12
M  V30 42 1 41 12
M  V30 43 1 42 13
M  V30 44 1 43 14
M  V30 45 1 44 14
M  V30 46 1 45 15
M  V30 47 1 46 15
M  V30 48 1 47 16
M  V30 49 1 48 16
M  V30 50 1 49 18
M  V30 51 1 50 18
M  V30 52 1 19 51 CFG=1
M  V30 53 1 52 20
M  V30 54 1 53 20
M  V30 55 1 54 23
M  V30 56 1 55 24
M  V30 57 1 56 24
M  V30 58 1 57 25
M  V30 59 1 58 25
M  V30 60 1 59 26
M  V30 61 1 60 26
M  V30 62 1 61 26
M  V30 63 1 62 23
M  V30 END BOND
M  V30 END CTAB
M  END
>  <i_epik_Tot_Q>  (1) 
1

>  <i_epik_Tot_abs_Q>  (1) 
1

>  <i_i_glide_confnum>  (1) 
890

>  <i_i_glide_lignum>  (1) 
50

>  <i_i_glide_posenum>  (1) 
255

>  <i_i_glide_rotatable_bonds>  (1) 
12

>  <i_lp_mmshare_version>  (1) 
72125

>  <i_m_source_file_index>  (1) 
30

>  <i_f3d_flags>  (1) 
0

>  <num_sample>  (1) 
100

>  <b_lp_Chiralities_Consistent>  (1) 
1

>  <r_epik_Charging_Adjusted_Penalty>  (1) 
1.4390288097636857e-06

>  <r_epik_Ionization_Penalty>  (1) 
0.023192080520664203

>  <r_epik_Ionization_Penalty_Charging>  (1) 
4.1514280511365775e-07

>  <r_epik_Ionization_Penalty_Neutral>  (1) 
0.023191665377859088

>  <r_epik_State_Penalty>  (1) 
1.023886004650028e-06

>  <r_glide_ring_energy>  (1) 
0

>  <r_i_docking_score>  (1) 
-6.2556997289009741

>  <r_i_glide_ecoul>  (1) 
-8.2462585464863558

>  <r_i_glide_eff_state_penalty>  (1) 
1.023886004650028e-06

>  <r_i_glide_einternal>  (1) 
8.9250748412197005

>  <r_i_glide_emodel>  (1) 
-59.580853172638946

>  <r_i_glide_emodel_strain>  (1) 
1.822446818825874

>  <r_i_glide_energy>  (1) 
-43.055502700614198

>  <r_i_glide_erotb>  (1) 
1.3985499384426772

>  <r_i_glide_esite>  (1) 
-0.1868602821619092

>  <r_i_glide_evdw>  (1) 
-34.809244154127839

>  <r_i_glide_gscore>  (1) 
-6.2557007527869786

>  <r_i_glide_gscore_strain>  (1) 
0

>  <r_i_glide_hbond>  (1) 
-0.20000000000000001

>  <r_i_glide_ligand_efficiency>  (1) 
-0.24060383572696054

>  <r_i_glide_ligand_efficiency_ln>  (1) 
-1.4691305547073565

>  <r_i_glide_ligand_efficiency_sa>  (1) 
-0.71278791738485359

>  <r_i_glide_lipo>  (1) 
-1.9528990822096977

>  <r_i_glide_metal>  (1) 
-0

>  <r_i_glide_rewards>  (1) 
-2.3370903371787035

>  <r_lp_Energy>  (1) 
24.237140999999998

>  <s_epik_Chemistry_Notes>  (1) 
This compound has an imine and may undergo hydrolysis. This compound has a N-S or N-O group and may undergo hydrolysis at high or low pH.

>  <s_epik_cmdline>  (1) 
J2VwaWtfcHl0aG9uJywgJy1waHQnLCAnMS4wJywgJy1waCcsICc3LjQnLCAnLXRuJywgJzgnLCAnLW1hJywgJzUwMCcsICctaW1hZScsICc8aW5maWxlLm1hZT4nLCAnLW9tYWUnLCAnPG91dGZpbGUubWFlPic=

>  <s_epik_input>  (1) 
RkMxPU5bQ0BASF0oW0NIMl1bQ0gyXVtDSDJdMSlDKD1PKU4oW0NIMl1bQ0gyXTIpW0NIMl1bQ0gyXVtDSF0yW0NIMl1bTkhdTihbT0hdKVtDSDJdW0NIMl1bQ0gyXVtDSDJdW0NIMl1bQ0gyXVtDSDNd

>  <s_glide_docking_method>  (1) 
confgen

>  <s_i_glide_gridfile>  (1) 
gpcr_drd2_6luq_protein_autoprepared_prepared

>  <s_lp_Force_Field>  (1) 
S-OPLS

>  <s_lp_Variant>  (1) 
DiffSBDD_29-1

>  <s_m_source_file>  (1) 
generated_generic_title2_ligand_DiffSBDD_2026-06-23_prepared.sdf

>  <GenAI_Model>  (1) 
DiffSBDD

>  <Protein>  (1) 
generic_title2

$$$$
DiffSBDD_31
     RDKit          3D

  0  0  0  0  0  0  0  0  0  0999 V3000
M  V30 BEGIN CTAB
M  V30 COUNTS 103 109 0 0 1
M  V30 BEGIN ATOM
M  V30 1 C 6.548826 1.378485 -12.558973 0
M  V30 2 C 6.099322 1.794859 -19.490026 0
M  V30 3 C 6.399982 7.219732 -15.892963 0 CFG=2
M  V30 4 C 7.688112 2.513477 -15.163551 0
M  V30 5 O 8.153410 2.652182 -20.443302 0
M  V30 6 C 9.736571 7.101648 -9.309589 0
M  V30 7 C 5.942386 0.637303 -13.766377 0
M  V30 8 C 7.851696 7.193311 -21.167054 0
M  V30 9 C 7.118645 2.810088 -12.803477 0 CFG=1
M  V30 10 C 7.017656 0.033266 -14.627817 0 CFG=2
M  V30 11 C 9.581443 5.672853 -9.842824 0 CFG=1
M  V30 12 C 7.948551 1.023606 -15.268677 0 CFG=1
M  V30 13 C 6.956924 1.088134 -18.418779 0
M  V30 14 C 5.122846 -0.516451 -17.543007 0 CFG=1
M  V30 15 C 9.564586 8.231387 -10.337589 0
M  V30 16 C 7.176722 0.069703 -16.144630 0 CFG=2
M  V30 17 C 4.827542 4.200032 -20.803024 0
M  V30 18 C 8.270372 5.022932 -10.261872 0 CFG=2
M  V30 19 C 6.968806 4.887923 -21.810993 0
M  V30 20 C 6.698208 8.198823 -21.085429 0
M  V30 21 C 7.332829 5.990239 -15.951824 0
M  V30 22 O 7.802082 4.611574 -17.849902 0
M  V30 23 O 8.054926 2.958228 -13.868915 0
M  V30 24 N 7.322446 5.692718 -11.185041 0 CFG=1 CHG=1
M  V30 25 C 6.178336 0.558581 -17.189444 0 CFG=1
M  V30 26 C 7.306354 5.646999 -17.414890 0
M  V30 27 C 6.146674 3.659842 -21.367019 0 CFG=1
M  V30 28 C 8.349108 5.894154 -12.206906 0
M  V30 29 C 5.514593 7.442288 -20.480421 0
M  V30 30 C 7.309734 5.850204 -20.646498 0 CFG=2
M  V30 31 C 6.090413 4.894869 -11.502572 0
M  V30 32 C 6.616916 6.669830 -18.308321 0 CFG=1
M  V30 33 C 5.677287 -1.839460 -18.094529 0
M  V30 34 C 6.089976 3.972871 -12.763737 0
M  V30 35 C 9.365529 5.271953 -11.282481 0 CFG=1
M  V30 36 O 4.415141 6.635606 -17.127957 0
M  V30 37 C 5.032215 5.112902 -19.591928 0
M  V30 38 O 4.371384 -0.809699 -16.385640 0
M  V30 39 C 6.100297 6.228891 -19.728199 0 CFG=1
M  V30 40 C 6.922806 2.700208 -20.428880 0
M  V30 41 C 5.547006 7.216485 -14.624432 0
M  V30 42 C 11.095806 7.276618 -8.607350 0
M  V30 43 C 5.650553 7.312389 -17.258496 0 CFG=1
M  V30 44 H 7.342901 0.750198 -12.150392 0
M  V30 45 H 5.790636 1.428702 -11.777183 0
M  V30 46 H 5.350894 2.388984 -18.973242 0
M  V30 47 H 5.556783 1.061634 -20.087139 0
M  V30 48 H 6.975346 8.136662 -15.825301 0
M  V30 49 H 8.338931 3.008419 -15.883145 0
M  V30 50 H 6.664893 2.788048 -15.412703 0
M  V30 51 H 8.975545 7.228388 -8.539866 0
M  V30 52 H 5.277879 -0.157952 -13.427564 0
M  V30 53 H 5.360454 1.300521 -14.373444 0
M  V30 54 H 8.260012 7.115600 -22.174875 0
M  V30 55 H 8.667665 7.531291 -20.526749 0
M  V30 56 H 7.797519 3.003238 -11.985031 0
M  V30 57 H 7.500948 -0.809507 -14.143992 0
M  V30 58 H 10.175079 4.982203 -9.246892 0
M  V30 59 H 8.975410 0.790556 -15.094691 0
M  V30 60 H 7.524567 0.280008 -18.881480 0
M  V30 61 H 7.704065 1.792810 -18.049922 0
M  V30 62 H 4.425714 -0.100395 -18.271600 0
M  V30 63 H 10.301803 8.161814 -11.137590 0
M  V30 64 H 8.575514 8.262660 -10.785069 0
M  V30 65 H 9.692502 9.190241 -9.836743 0
M  V30 66 H 7.778991 -0.748656 -16.533465 0
M  V30 67 H 4.293738 4.737386 -21.586656 0
M  V30 68 H 4.175427 3.381013 -20.519678 0
M  V30 69 H 8.044172 3.990475 -10.025068 0
M  V30 70 H 6.409905 5.424702 -22.578349 0
M  V30 71 H 7.890041 4.566138 -22.298460 0
M  V30 72 H 6.448116 8.608068 -22.064678 0
M  V30 73 H 6.975342 9.035084 -20.444453 0
M  V30 74 H 8.339070 6.191386 -15.585122 0
M  V30 75 H 6.929476 5.138024 -15.421876 0
M  V30 76 H 5.635335 1.402875 -16.774766 0
M  V30 77 H 5.916126 3.072391 -22.255428 0
M  V30 78 H 8.225612 5.346114 -13.135347 0
M  V30 79 H 8.507924 6.940573 -12.454915 0
M  V30 80 H 4.877403 7.096822 -21.295512 0
M  V30 81 H 4.890766 8.081086 -19.855488 0
M  V30 82 H 8.112374 5.370149 -20.093864 0
M  V30 83 H 5.294914 5.626747 -11.640940 0
M  V30 84 H 5.794605 4.322012 -10.621729 0
M  V30 85 H 7.418386 7.379628 -18.496668 0
M  V30 86 H 6.254585 -1.683714 -19.005608 0
M  V30 87 H 6.314916 -2.350876 -17.371271 0
M  V30 88 H 4.861841 -2.520816 -18.340688 0
M  V30 89 H 6.203047 4.592693 -13.641305 0
M  V30 90 H 5.087707 3.562424 -12.879453 0
M  V30 91 H 9.891488 4.398163 -11.664121 0
M  V30 92 H 3.889207 6.826893 -17.888710 0
M  V30 93 H 5.254398 4.487681 -18.731387 0
M  V30 94 H 4.078178 5.590259 -19.387670 0
M  V30 95 H 4.932090 -1.250649 -15.762656 0
M  V30 96 H 4.975420 6.294940 -14.550826 0
M  V30 97 H 6.168102 7.282852 -13.731272 0
M  V30 98 H 4.867017 8.064899 -14.622358 0
M  V30 99 H 11.921655 7.190185 -9.313223 0
M  V30 100 H 11.176072 8.256962 -8.136490 0
M  V30 101 H 11.235964 6.532177 -7.822273 0
M  V30 102 H 5.423483 8.352823 -17.495487 0
M  V30 103 H 7.071314 6.568477 -10.721389 0
M  V30 END ATOM
M  V30 BEGIN BOND
M  V30 1 1 7 1
M  V30 2 1 9 1
M  V30 3 1 10 7
M  V30 4 1 11 6
M  V30 5 1 12 4
M  V30 6 1 12 10
M  V30 7 1 13 2
M  V30 8 1 15 6
M  V30 9 1 16 10
M  V30 10 1 16 12
M  V30 11 1 18 11
M  V30 12 1 20 8
M  V30 13 1 21 3
M  V30 14 1 23 4
M  V30 15 1 23 9
M  V30 16 1 24 18
M  V30 17 1 25 13
M  V30 18 1 25 14
M  V30 19 1 25 16
M  V30 20 1 26 21
M  V30 21 2 26 22
M  V30 22 1 27 17
M  V30 23 1 27 19
M  V30 24 1 28 24
M  V30 25 1 29 20
M  V30 26 1 30 8
M  V30 27 1 30 19
M  V30 28 1 31 24
M  V30 29 1 32 26
M  V30 30 1 33 14
M  V30 31 1 34 9
M  V30 32 1 34 31
M  V30 33 1 35 11
M  V30 34 1 35 18
M  V30 35 1 35 28
M  V30 36 1 37 17
M  V30 37 1 38 14
M  V30 38 1 39 29 CFG=3
M  V30 39 1 39 30
M  V30 40 1 39 32
M  V30 41 1 39 37
M  V30 42 1 40 2
M  V30 43 2 40 5
M  V30 44 1 40 27
M  V30 45 1 41 3
M  V30 46 1 42 6
M  V30 47 1 43 3
M  V30 48 1 43 32
M  V30 49 1 43 36
M  V30 50 1 44 1
M  V30 51 1 45 1
M  V30 52 1 46 2
M  V30 53 1 47 2
M  V30 54 1 3 48 CFG=1
M  V30 55 1 49 4
M  V30 56 1 50 4
M  V30 57 1 51 6
M  V30 58 1 52 7
M  V30 59 1 53 7
M  V30 60 1 54 8
M  V30 61 1 55 8
M  V30 62 1 9 56 CFG=1
M  V30 63 1 10 57 CFG=1
M  V30 64 1 11 58 CFG=1
M  V30 65 1 12 59 CFG=1
M  V30 66 1 60 13
M  V30 67 1 61 13
M  V30 68 1 14 62 CFG=3
M  V30 69 1 63 15
M  V30 70 1 64 15
M  V30 71 1 65 15
M  V30 72 1 16 66 CFG=3
M  V30 73 1 67 17
M  V30 74 1 68 17
M  V30 75 1 18 69 CFG=1
M  V30 76 1 70 19
M  V30 77 1 71 19
M  V30 78 1 72 20
M  V30 79 1 73 20
M  V30 80 1 74 21
M  V30 81 1 75 21
M  V30 82 1 25 76 CFG=1
M  V30 83 1 27 77 CFG=3
M  V30 84 1 78 28
M  V30 85 1 79 28
M  V30 86 1 80 29
M  V30 87 1 81 29
M  V30 88 1 30 82 CFG=1
M  V30 89 1 83 31
M  V30 90 1 84 31
M  V30 91 1 32 85 CFG=3
M  V30 92 1 86 33
M  V30 93 1 87 33
M  V30 94 1 88 33
M  V30 95 1 89 34
M  V30 96 1 90 34
M  V30 97 1 35 91 CFG=3
M  V30 98 1 92 36
M  V30 99 1 93 37
M  V30 100 1 94 37
M  V30 101 1 95 38
M  V30 102 1 96 41
M  V30 103 1 97 41
M  V30 104 1 98 41
M  V30 105 1 99 42
M  V30 106 1 100 42
M  V30 107 1 101 42
M  V30 108 1 43 102 CFG=3
M  V30 109 1 24 103 CFG=1
M  V30 END BOND
M  V30 END CTAB
M  END
>  <i_epik_Tot_Q>  (1) 
1

>  <i_epik_Tot_abs_Q>  (1) 
1

>  <i_i_glide_confnum>  (1) 
1787

>  <i_i_glide_lignum>  (1) 
53

>  <i_i_glide_posenum>  (1) 
232

>  <i_i_glide_rotatable_bonds>  (1) 
13

>  <i_lp_mmshare_version>  (1) 
72125

>  <i_m_source_file_index>  (1) 
32

>  <i_f3d_flags>  (1) 
0

>  <num_sample>  (1) 
100

>  <b_lp_Chiralities_Consistent>  (1) 
1

>  <r_epik_Charging_Adjusted_Penalty>  (1) 
0.00082013732971917403

>  <r_epik_Ionization_Penalty>  (1) 
0.00082046965520535795

>  <r_epik_Ionization_Penalty_Charging>  (1) 
0.00082013732971917403

>  <r_epik_Ionization_Penalty_Neutral>  (1) 
3.3232548618397322e-07

>  <r_epik_State_Penalty>  (1) 
-0

>  <r_glide_ring_energy>  (1) 
1.7158683604837299

>  <r_i_docking_score>  (1) 
-6.2465227259521567

>  <r_i_glide_ecoul>  (1) 
-4.9540720778135139

>  <r_i_glide_eff_state_penalty>  (1) 
-0

>  <r_i_glide_einternal>  (1) 
19.404626934348101

>  <r_i_glide_emodel>  (1) 
-37.943203401115014

>  <r_i_glide_emodel_strain>  (1) 
0.95870398570980342

>  <r_i_glide_energy>  (1) 
-38.862353812307802

>  <r_i_glide_erotb>  (1) 
0.46956192147436254

>  <r_i_glide_esite>  (1) 
-0.090394927854202056

>  <r_i_glide_evdw>  (1) 
-33.908281734494288

>  <r_i_glide_gscore>  (1) 
-6.2465227259521567

>  <r_i_glide_gscore_strain>  (1) 
0

>  <r_i_glide_hbond>  (1) 
-0.20000000000000001

>  <r_i_glide_ligand_efficiency>  (1) 
-0.14526797037098038

>  <r_i_glide_ligand_efficiency_ln>  (1) 
-1.3119639112338022

>  <r_i_glide_ligand_efficiency_sa>  (1) 
-0.5089315256340089

>  <r_i_glide_lipo>  (1) 
-2.9612523674991578

>  <r_i_glide_metal>  (1) 
-0

>  <r_i_glide_rewards>  (1) 
-1.0259124536764177

>  <r_lp_Energy>  (1) 
46.113288999999995

>  <r_lp_tautomer_probability>  (1) 
1

>  <s_epik_cmdline>  (1) 
J2VwaWtfcHl0aG9uJywgJy1waHQnLCAnMS4wJywgJy1waCcsICc3LjQnLCAnLXRuJywgJzgnLCAnLW1hJywgJzUwMCcsICctaW1hZScsICc8aW5maWxlLm1hZT4nLCAnLW9tYWUnLCAnPG91dGZpbGUubWFlPic=

>  <s_epik_input>  (1) 
W0NIM11bQ0hdKFtDSDNdKVtDQEBIXTFbQ0BASF0oW0NAQEhdMTIpW0NIMl1OMltDSDJdW0NIMl1bQ0BASF0oW0NIMl1bQ0gyXTMpT1tDSDJdW0NAQEhdKFtDQEBIXTM0KVtDQEBIXTRbQ0BIXShbQ0BASF0oW0NIM10pW09IXSlbQ0gyXVtDSDJdQyg9TylbQ0BASF0oW0NIMl1bQ0gyXTUpW0NIMl1bQ0BASF0oW0NIMl1bQ0gyXVtDSDJdNilbQ0BdNTZbQ0BASF0oW0NASF03W09IXSlDKD1PKVtDSDJdW0NAQEhdN1tDSDNd

>  <s_glide_docking_method>  (1) 
confgen

>  <s_i_glide_gridfile>  (1) 
gpcr_drd2_6luq_protein_autoprepared_prepared

>  <s_lp_Force_Field>  (1) 
S-OPLS

>  <s_lp_Variant>  (1) 
DiffSBDD_31-2

>  <s_m_source_file>  (1) 
generated_generic_title2_ligand_DiffSBDD_2026-06-23_prepared.sdf

>  <GenAI_Model>  (1) 
DiffSBDD

>  <Protein>  (1) 
generic_title2

$$$$
DiffSBDD_0
     RDKit          3D

  0  0  0  0  0  0  0  0  0  0999 V3000
M  V30 BEGIN CTAB
M  V30 COUNTS 39 41 0 0 1
M  V30 BEGIN ATOM
M  V30 1 N 10.612596 8.902591 -6.523089 0
M  V30 2 C 12.023160 7.084318 -2.423188 0
M  V30 3 C 10.428497 6.470705 -6.330493 0
M  V30 4 C 9.372608 7.739237 -8.256282 0
M  V30 5 O 8.899421 5.590212 -13.652083 0
M  V30 6 C 12.356748 9.436412 -3.376205 0
M  V30 7 N 12.325807 7.958492 -3.549311 0
M  V30 8 C 9.450590 5.204208 -9.414138 0
M  V30 9 C 11.789179 10.090628 -4.751546 0
M  V30 10 C 11.596444 7.733397 -4.683122 0
M  V30 11 C 11.305638 8.845207 -5.368511 0
M  V30 12 C 11.162752 6.491257 -5.134154 0
M  V30 13 C 10.179150 7.701530 -6.987472 0
M  V30 14 C 8.906520 4.804582 -10.780738 0
M  V30 15 C 7.799747 5.911818 -12.825955 0
M  V30 16 S 10.175413 6.860515 -9.617601 0 CHG=1
M  V30 17 C 9.138022 7.257958 -11.060681 0
M  V30 18 C 8.225201 6.051796 -11.354332 0 CFG=2
M  V30 19 H 10.975401 6.790233 -2.382020 0
M  V30 20 H 12.626127 6.177353 -2.478325 0
M  V30 21 H 12.272145 7.590820 -1.492277 0
M  V30 22 H 10.057243 5.547744 -6.734477 0
M  V30 23 H 9.134479 8.764902 -8.542487 0
M  V30 24 H 8.462878 7.227586 -7.985003 0
M  V30 25 H 9.209640 4.722722 -13.437545 0
M  V30 26 H 11.737959 9.725045 -2.525353 0
M  V30 27 H 13.375395 9.766335 -3.184999 0
M  V30 28 H 10.175342 4.492792 -9.020047 0
M  V30 29 H 8.617738 5.227331 -8.712054 0
M  V30 30 H 12.575371 10.445179 -5.411142 0
M  V30 31 H 10.998199 10.828619 -4.610165 0
M  V30 32 H 11.382415 5.590215 -4.591839 0
M  V30 33 H 8.192563 3.990233 -10.702860 0
M  V30 34 H 9.728322 4.471324 -11.415828 0
M  V30 35 H 7.347802 6.840260 -13.177710 0
M  V30 36 H 7.043627 5.132802 -12.930615 0
M  V30 37 H 9.813873 7.426787 -11.899568 0
M  V30 38 H 8.575663 8.181397 -10.918618 0
M  V30 39 H 7.307465 6.192122 -10.785025 0
M  V30 END ATOM
M  V30 BEGIN BOND
M  V30 1 1 7 2
M  V30 2 1 7 6
M  V30 3 1 9 6
M  V30 4 1 10 7
M  V30 5 1 11 1
M  V30 6 1 11 9
M  V30 7 2 11 10
M  V30 8 2 12 3
M  V30 9 1 12 10
M  V30 10 2 13 1
M  V30 11 1 13 3
M  V30 12 1 13 4
M  V30 13 1 14 8
M  V30 14 1 15 5
M  V30 15 1 16 4 CFG=1
M  V30 16 1 16 8
M  V30 17 1 17 16
M  V30 18 1 18 14
M  V30 19 1 18 15
M  V30 20 1 18 17
M  V30 21 1 19 2
M  V30 22 1 20 2
M  V30 23 1 21 2
M  V30 24 1 22 3
M  V30 25 1 23 4
M  V30 26 1 24 4
M  V30 27 1 25 5
M  V30 28 1 26 6
M  V30 29 1 27 6
M  V30 30 1 28 8
M  V30 31 1 29 8
M  V30 32 1 30 9
M  V30 33 1 31 9
M  V30 34 1 32 12
M  V30 35 1 33 14
M  V30 36 1 34 14
M  V30 37 1 35 15
M  V30 38 1 36 15
M  V30 39 1 37 17
M  V30 40 1 38 17
M  V30 41 1 18 39 CFG=1
M  V30 END BOND
M  V30 END CTAB
M  END
>  <i_epik_Tot_Q>  (1) 
1

>  <i_epik_Tot_abs_Q>  (1) 
1

>  <i_i_glide_confnum>  (1) 
14

>  <i_i_glide_lignum>  (1) 
1

>  <i_i_glide_posenum>  (1) 
313

>  <i_i_glide_rotatable_bonds>  (1) 
4

>  <i_lp_mmshare_version>  (1) 
72125

>  <i_m_source_file_index>  (1) 
1

>  <i_f3d_flags>  (1) 
0

>  <num_sample>  (1) 
100

>  <b_lp_Chiralities_Consistent>  (1) 
1

>  <r_epik_Charging_Adjusted_Penalty>  (1) 
0

>  <r_epik_Ionization_Penalty>  (1) 
0.00029429108255977062

>  <r_epik_Ionization_Penalty_Charging>  (1) 
0

>  <r_epik_Ionization_Penalty_Neutral>  (1) 
0.00029429108255977062

>  <r_epik_State_Penalty>  (1) 
-0

>  <r_glide_ring_energy>  (1) 
0

>  <r_i_docking_score>  (1) 
-6.2459280831202504

>  <r_i_glide_ecoul>  (1) 
-6.159344194207546

>  <r_i_glide_eff_state_penalty>  (1) 
-0

>  <r_i_glide_einternal>  (1) 
2.6067856943197087

>  <r_i_glide_emodel>  (1) 
-40.460499544974525

>  <r_i_glide_emodel_strain>  (1) 
0.61771293031199548

>  <r_i_glide_energy>  (1) 
-29.528118131115189

>  <r_i_glide_erotb>  (1) 
0.7579090882420203

>  <r_i_glide_esite>  (1) 
-0.057588670747968189

>  <r_i_glide_evdw>  (1) 
-23.368773936907644

>  <r_i_glide_gscore>  (1) 
-6.2459280831202504

>  <r_i_glide_gscore_strain>  (1) 
0

>  <r_i_glide_hbond>  (1) 
0

>  <r_i_glide_ligand_efficiency>  (1) 
-0.34699600461779168

>  <r_i_glide_ligand_efficiency_ln>  (1) 
-1.6054836071753522

>  <r_i_glide_ligand_efficiency_sa>  (1) 
-0.90938679292694813

>  <r_i_glide_lipo>  (1) 
-2.1396551457681223

>  <r_i_glide_metal>  (1) 
-0

>  <r_i_glide_rewards>  (1) 
-2.7142530288696651

>  <r_lp_Energy>  (1) 
8.6419370000000004

>  <r_lp_tautomer_probability>  (1) 
1

>  <s_epik_cmdline>  (1) 
J2VwaWtfcHl0aG9uJywgJy1waHQnLCAnMS4wJywgJy1waCcsICc3LjQnLCAnLXRuJywgJzgnLCAnLW1hJywgJzUwMCcsICctaW1hZScsICc8aW5maWxlLm1hZT4nLCAnLW9tYWUnLCAnPG91dGZpbGUubWFlPic=

>  <s_epik_input>  (1) 
W0NIM11OMVtDSDJdW0NIMl1jKGMxMiluYyhbY0hdW2NIXTIpW0NIMl1bUytdM1tDSDJdW0NIMl1bQ0BASF0oW0NIMl0zKVtDSDJdW09IXQ==

>  <s_glide_docking_method>  (1) 
confgen

>  <s_i_glide_gridfile>  (1) 
gpcr_drd2_6luq_protein_autoprepared_prepared

>  <s_lp_Force_Field>  (1) 
S-OPLS

>  <s_lp_Variant>  (1) 
DiffSBDD_0-1

>  <s_m_source_file>  (1) 
generated_generic_title2_ligand_DiffSBDD_2026-06-23_prepared.sdf

>  <GenAI_Model>  (1) 
DiffSBDD

>  <Protein>  (1) 
generic_title2

$$$$
DiffSBDD_71
     RDKit          3D

  0  0  0  0  0  0  0  0  0  0999 V3000
M  V30 BEGIN CTAB
M  V30 COUNTS 55 57 0 0 1
M  V30 BEGIN ATOM
M  V30 1 C 9.901128 7.999982 -8.970150 0 CFG=2
M  V30 2 O 8.575417 5.590224 -7.675309 0
M  V30 3 C 7.215500 3.525809 -13.314761 0 CFG=1
M  V30 4 C 8.739541 6.104705 -13.013195 0
M  V30 5 C 9.760099 5.490030 -8.439555 0
M  V30 6 C 12.558446 9.336048 -3.670655 0
M  V30 7 C 8.902150 4.051048 -11.471260 0
M  V30 8 N 9.775421 6.573520 -9.422141 0
M  V30 9 C 11.362027 6.390235 -3.860042 0
M  V30 10 O 12.175481 8.790226 -1.435769 0
M  V30 11 O 7.229234 3.452631 -14.721465 0
M  V30 12 C 8.786772 6.394294 -10.493968 0
M  V30 13 C 11.096867 8.634981 -9.700811 0
M  V30 14 C 7.226409 5.901224 -13.281601 0 CFG=2
M  V30 15 C 11.948201 6.922526 -2.790647 0
M  V30 16 C 12.097044 9.315058 -4.931236 0
M  V30 17 C 12.573623 8.244799 -2.672645 0 CFG=1
M  V30 18 C 8.651545 3.288484 -12.783241 0
M  V30 19 O 6.676792 4.698672 -12.779156 0
M  V30 20 O 7.839110 4.637096 -16.602237 0
M  V30 21 C 9.952209 8.302360 -7.452132 0
M  V30 22 C 9.273712 5.537112 -11.675113 0 CFG=2
M  V30 23 C 7.375019 4.599568 -15.464968 0
M  V30 24 C 11.173596 6.961946 -5.184995 0
M  V30 25 C 11.478117 8.205124 -5.661958 0
M  V30 26 O 11.209200 8.434857 -6.992183 0
M  V30 27 C 6.864449 5.867491 -14.763152 0
M  V30 28 O 8.957184 8.390225 -6.743420 0
M  V30 29 H 9.014685 8.539555 -9.304105 0
M  V30 30 H 8.068665 6.348299 -7.953275 0
M  V30 31 H 6.566525 2.723514 -12.961704 0
M  V30 32 H 8.951483 7.172489 -13.061914 0
M  V30 33 H 9.331826 5.693193 -13.828846 0
M  V30 34 H 10.652632 5.529636 -7.821754 0
M  V30 35 H 9.776858 4.515949 -8.922459 0
M  V30 36 H 12.991803 10.250879 -3.318778 0
M  V30 37 H 9.712248 3.564558 -10.932351 0
M  V30 38 H 8.028170 3.977508 -10.824880 0
M  V30 39 H 10.975525 5.410297 -3.732056 0
M  V30 40 H 11.250537 8.988444 -1.457908 0
M  V30 41 H 7.845331 5.990239 -10.110934 0
M  V30 42 H 8.559017 7.376974 -10.902333 0
M  V30 43 H 11.217666 9.689107 -9.454491 0
M  V30 44 H 12.030462 8.127059 -9.457095 0
M  V30 45 H 10.963993 8.558914 -10.779183 0
M  V30 46 H 6.681532 6.711960 -12.797316 0
M  V30 47 H 11.985285 6.322378 -1.891792 0
M  V30 48 H 12.205314 10.236500 -5.484784 0
M  V30 49 H 13.628700 8.017223 -2.542864 0
M  V30 50 H 9.375416 3.590226 -13.531695 0
M  V30 51 H 8.785751 2.215595 -12.640260 0
M  V30 52 H 10.358033 5.621141 -11.745317 0
M  V30 53 H 10.724302 6.292850 -5.895338 0
M  V30 54 H 7.261679 6.748840 -15.266746 0
M  V30 55 H 5.780587 5.899733 -14.878177 0
M  V30 END ATOM
M  V30 BEGIN BOND
M  V30 1 1 5 2
M  V30 2 1 8 1
M  V30 3 1 8 5
M  V30 4 1 11 3
M  V30 5 1 12 8
M  V30 6 1 13 1
M  V30 7 1 14 4
M  V30 8 2 15 9
M  V30 9 2 16 6
M  V30 10 1 17 6
M  V30 11 1 17 10
M  V30 12 1 17 15
M  V30 13 1 18 3
M  V30 14 1 18 7
M  V30 15 1 19 3
M  V30 16 1 19 14
M  V30 17 1 21 1
M  V30 18 1 22 4
M  V30 19 1 22 7
M  V30 20 1 22 12
M  V30 21 1 23 11
M  V30 22 2 23 20
M  V30 23 1 24 9
M  V30 24 1 25 16
M  V30 25 2 25 24
M  V30 26 1 26 21
M  V30 27 1 26 25
M  V30 28 1 27 14
M  V30 29 1 27 23
M  V30 30 2 28 21
M  V30 31 1 1 29 CFG=3
M  V30 32 1 30 2
M  V30 33 1 3 31 CFG=1
M  V30 34 1 32 4
M  V30 35 1 33 4
M  V30 36 1 34 5
M  V30 37 1 35 5
M  V30 38 1 36 6
M  V30 39 1 37 7
M  V30 40 1 38 7
M  V30 41 1 39 9
M  V30 42 1 40 10
M  V30 43 1 41 12
M  V30 44 1 42 12
M  V30 45 1 43 13
M  V30 46 1 44 13
M  V30 47 1 45 13
M  V30 48 1 14 46 CFG=1
M  V30 49 1 47 15
M  V30 50 1 48 16
M  V30 51 1 17 49 CFG=1
M  V30 52 1 50 18
M  V30 53 1 51 18
M  V30 54 1 22 52 CFG=3
M  V30 55 1 53 24
M  V30 56 1 54 27
M  V30 57 1 55 27
M  V30 END BOND
M  V30 END CTAB
M  END
>  <i_epik_Tot_Q>  (1) 
0

>  <i_epik_Tot_abs_Q>  (1) 
0

>  <i_i_glide_confnum>  (1) 
454

>  <i_i_glide_lignum>  (1) 
116

>  <i_i_glide_posenum>  (1) 
243

>  <i_i_glide_rotatable_bonds>  (1) 
9

>  <i_lp_mmshare_version>  (1) 
72125

>  <i_m_source_file_index>  (1) 
72

>  <i_f3d_flags>  (1) 
0

>  <num_sample>  (1) 
100

>  <b_lp_Chiralities_Consistent>  (1) 
1

>  <r_epik_Charging_Adjusted_Penalty>  (1) 
0

>  <r_epik_Ionization_Penalty>  (1) 
0.0080147773199130048

>  <r_epik_Ionization_Penalty_Charging>  (1) 
0

>  <r_epik_Ionization_Penalty_Neutral>  (1) 
0.0080147773199130048

>  <r_epik_State_Penalty>  (1) 
-0

>  <r_glide_ring_energy>  (1) 
0.62074138562282444

>  <r_i_docking_score>  (1) 
-6.2402388930244665

>  <r_i_glide_ecoul>  (1) 
-3.1876836178855159

>  <r_i_glide_eff_state_penalty>  (1) 
-0

>  <r_i_glide_einternal>  (1) 
16.112063324211942

>  <r_i_glide_emodel>  (1) 
-40.320424042775642

>  <r_i_glide_emodel_strain>  (1) 
1.7238365334256116

>  <r_i_glide_energy>  (1) 
-37.395405424714106

>  <r_i_glide_erotb>  (1) 
0.75718691864975285

>  <r_i_glide_esite>  (1) 
-0.0082341530998363832

>  <r_i_glide_evdw>  (1) 
-34.207721806828587

>  <r_i_glide_gscore>  (1) 
-6.2402388930244665

>  <r_i_glide_gscore_strain>  (1) 
0

>  <r_i_glide_hbond>  (1) 
-0.32218463972508515

>  <r_i_glide_ligand_efficiency>  (1) 
-0.22286567475087379

>  <r_i_glide_ligand_efficiency_ln>  (1) 
-1.4404303578854123

>  <r_i_glide_ligand_efficiency_sa>  (1) 
-0.67675145015813176

>  <r_i_glide_lipo>  (1) 
-2.8883844663651725

>  <r_i_glide_metal>  (1) 
-0

>  <r_i_glide_rewards>  (1) 
-1.5900839194598686

>  <r_lp_Energy>  (1) 
43.182693999999998

>  <r_lp_tautomer_probability>  (1) 
1

>  <s_epik_Chemistry_Notes>  (1) 
This compound has an ester and may undergo hydrolysis at high or low pH. This compound contains an acetal/aminal-like group ( X-CH(R)-Y where X, Y are N, S, or O) that may be acid/base labile, releasing an aldehyde.

>  <s_epik_cmdline>  (1) 
J2VwaWtfcHl0aG9uJywgJy1waHQnLCAnMS4wJywgJy1waCcsICc3LjQnLCAnLXRuJywgJzgnLCAnLW1hJywgJzUwMCcsICctaW1hZScsICc8aW5maWxlLm1hZT4nLCAnLW9tYWUnLCAnPG91dGZpbGUubWFlPic=

>  <s_epik_input>  (1) 
W09IXVtDQEBIXTFbQ0hdPVtDSF1DKD1bQ0hdW0NIXT1bQ0hdMSlPQyg9TylbQ0BIXShbQ0gzXSlOKFtDSDJdW09IXSlbQ0gyXVtDQEBIXShbQ0gyXVtDSDJdMilbQ0gyXVtDQEhdKE8zKVtDSDJdQyg9TylPW0NAQEhdMjM=

>  <s_glide_docking_method>  (1) 
confgen

>  <s_i_glide_gridfile>  (1) 
gpcr_drd2_6luq_protein_autoprepared_prepared

>  <s_lp_Force_Field>  (1) 
S-OPLS

>  <s_lp_Variant>  (1) 
DiffSBDD_71-2

>  <s_m_source_file>  (1) 
generated_generic_title2_ligand_DiffSBDD_2026-06-23_prepared.sdf

>  <GenAI_Model>  (1) 
DiffSBDD

>  <Protein>  (1) 
generic_title2

$$$$
DiffSBDD_19
     RDKit          3D

  0  0  0  0  0  0  0  0  0  0999 V3000
M  V30 BEGIN CTAB
M  V30 COUNTS 40 43 0 0 1
M  V30 BEGIN ATOM
M  V30 1 C 8.060454 5.380518 -12.171310 0 CFG=1
M  V30 2 C 10.582500 8.838913 -7.102153 0 CFG=1
M  V30 3 N 10.261224 7.208533 -9.640849 0
M  V30 4 C 11.967394 8.714250 -3.744645 0 CFG=2
M  V30 5 O 8.939103 4.867072 -13.187511 0
M  V30 6 C 11.619770 8.276758 -8.046933 0 CFG=1
M  V30 7 C 9.775438 6.798779 -10.835847 0
M  V30 8 C 11.375365 6.711328 -5.041985 0
M  V30 9 C 11.775417 7.228927 -3.913995 0
M  V30 10 C 8.014271 3.937671 -12.620865 0
M  V30 11 F 7.479047 7.590290 -12.815320 0
M  V30 12 C 10.679401 7.335509 -7.312967 0 CFG=2
M  V30 13 C 8.681441 5.713437 -10.817925 0
M  V30 14 C 11.001992 9.758246 -5.937187 0
M  V30 15 C 12.240804 9.459976 -5.073250 0
M  V30 16 C 6.997208 6.362418 -12.641230 0
M  V30 17 C 9.790457 6.686864 -8.366042 0
M  V30 18 F 12.975409 8.919678 -2.908987 0
M  V30 19 C 11.124155 6.380444 -6.277629 0
M  V30 20 C 11.343761 8.173859 -9.530461 0
M  V30 21 O 10.188899 7.244913 -11.905891 0
M  V30 22 H 9.654848 9.190223 -7.547110 0
M  V30 23 H 11.125463 9.190207 -3.240356 0
M  V30 24 H 12.665307 8.307746 -7.746640 0
M  V30 25 H 12.055607 6.603337 -3.079069 0
M  V30 26 H 8.486310 3.168396 -12.013249 0
M  V30 27 H 7.221186 3.616869 -13.293105 0
M  V30 28 H 9.128745 4.804759 -10.415169 0
M  V30 29 H 7.876800 5.990231 -10.138517 0
M  V30 30 H 10.175408 9.870803 -5.252294 0
M  V30 31 H 11.151158 10.745256 -6.373531 0
M  V30 32 H 12.575284 10.390241 -4.692468 0
M  V30 33 H 13.114998 9.190224 -5.653942 0
M  V30 34 H 6.572403 6.045168 -13.593641 0
M  V30 35 H 6.195957 6.430851 -11.904350 0
M  V30 36 H 8.748257 6.942736 -8.172047 0
M  V30 37 H 9.885190 5.600312 -8.344370 0
M  V30 38 H 11.156889 5.347429 -6.575094 0
M  V30 39 H 11.060945 9.147090 -9.931141 0
M  V30 40 H 12.235964 7.821448 -10.049718 0
M  V30 END ATOM
M  V30 BEGIN BOND
M  V30 1 1 5 1
M  V30 2 1 6 2
M  V30 3 1 7 3
M  V30 4 1 9 4
M  V30 5 2 9 8
M  V30 6 1 10 1
M  V30 7 1 10 5
M  V30 8 1 12 2
M  V30 9 1 12 6
M  V30 10 1 1 13 CFG=1
M  V30 11 1 13 7
M  V30 12 1 14 2
M  V30 13 1 15 4
M  V30 14 1 15 14
M  V30 15 1 16 1
M  V30 16 1 16 11
M  V30 17 1 17 3
M  V30 18 1 12 17 CFG=3
M  V30 19 1 18 4
M  V30 20 2 19 8
M  V30 21 1 19 12
M  V30 22 1 20 3
M  V30 23 1 20 6
M  V30 24 2 21 7
M  V30 25 1 2 22 CFG=3
M  V30 26 1 4 23 CFG=1
M  V30 27 1 6 24 CFG=3
M  V30 28 1 25 9
M  V30 29 1 26 10
M  V30 30 1 27 10
M  V30 31 1 28 13
M  V30 32 1 29 13
M  V30 33 1 30 14
M  V30 34 1 31 14
M  V30 35 1 32 15
M  V30 36 1 33 15
M  V30 37 1 34 16
M  V30 38 1 35 16
M  V30 39 1 36 17
M  V30 40 1 37 17
M  V30 41 1 38 19
M  V30 42 1 39 20
M  V30 43 1 40 20
M  V30 END BOND
M  V30 END CTAB
M  END
>  <i_epik_Tot_Q>  (1) 
0

>  <i_epik_Tot_abs_Q>  (1) 
0

>  <i_i_glide_confnum>  (1) 
2

>  <i_i_glide_lignum>  (1) 
36

>  <i_i_glide_posenum>  (1) 
338

>  <i_i_glide_rotatable_bonds>  (1) 
4

>  <i_lp_mmshare_version>  (1) 
72125

>  <i_m_source_file_index>  (1) 
20

>  <i_f3d_flags>  (1) 
0

>  <num_sample>  (1) 
100

>  <b_lp_Chiralities_Consistent>  (1) 
1

>  <r_epik_Charging_Adjusted_Penalty>  (1) 
0

>  <r_epik_Ionization_Penalty>  (1) 
4.7432699255447401e-09

>  <r_epik_Ionization_Penalty_Charging>  (1) 
0

>  <r_epik_Ionization_Penalty_Neutral>  (1) 
4.7432699255447401e-09

>  <r_epik_State_Penalty>  (1) 
-0

>  <r_glide_ring_energy>  (1) 
0

>  <r_i_docking_score>  (1) 
-6.2366441572930666

>  <r_i_glide_ecoul>  (1) 
-0.4740309873596833

>  <r_i_glide_eff_state_penalty>  (1) 
-0

>  <r_i_glide_einternal>  (1) 
1.4159078292366325

>  <r_i_glide_emodel>  (1) 
-35.298226740952238

>  <r_i_glide_emodel_strain>  (1) 
1.3288025974700304

>  <r_i_glide_energy>  (1) 
-27.272952779455277

>  <r_i_glide_erotb>  (1) 
0.62952724297124418

>  <r_i_glide_esite>  (1) 
-0.15597514064289617

>  <r_i_glide_evdw>  (1) 
-26.798921792095594

>  <r_i_glide_gscore>  (1) 
-6.2366441572930666

>  <r_i_glide_gscore_strain>  (1) 
0

>  <r_i_glide_hbond>  (1) 
0

>  <r_i_glide_ligand_efficiency>  (1) 
-0.29698305510919365

>  <r_i_glide_ligand_efficiency_ln>  (1) 
-1.5419976655645762

>  <r_i_glide_ligand_efficiency_sa>  (1) 
-0.81935373071628115

>  <r_i_glide_lipo>  (1) 
-2.5988684704496032

>  <r_i_glide_metal>  (1) 
-0

>  <r_i_glide_rewards>  (1) 
-2.7002770514630789

>  <r_lp_Energy>  (1) 
2.731881

>  <r_lp_tautomer_probability>  (1) 
1

>  <s_epik_cmdline>  (1) 
J2VwaWtfcHl0aG9uJywgJy1waHQnLCAnMS4wJywgJy1waCcsICc3LjQnLCAnLXRuJywgJzgnLCAnLW1hJywgJzUwMCcsICctaW1hZScsICc8aW5maWxlLm1hZT4nLCAnLW9tYWUnLCAnPG91dGZpbGUubWFlPic=

>  <s_epik_input>  (1) 
W0NIMl0xT0MxKFtDSDJdRilbQ0gyXUMoPU8pTihbQ0gyXTIpW0NIMl1bQ0BIXTNbQ0BASF0oQzIzNClbQ0gyXVtDSDJdW0NASF0oRilbQ0hdPUM9W0NIXTQ=

>  <s_glide_docking_method>  (1) 
confgen

>  <s_i_glide_gridfile>  (1) 
gpcr_drd2_6luq_protein_autoprepared_prepared

>  <s_lp_Force_Field>  (1) 
S-OPLS

>  <s_lp_Variant>  (1) 
DiffSBDD_19-1

>  <s_m_source_file>  (1) 
generated_generic_title2_ligand_DiffSBDD_2026-06-23_prepared.sdf

>  <GenAI_Model>  (1) 
DiffSBDD

>  <Protein>  (1) 
generic_title2

$$$$
DiffSBDD_88
     RDKit          3D

  0  0  0  0  0  0  0  0  0  0999 V3000
M  V30 BEGIN CTAB
M  V30 COUNTS 37 38 0 0 1
M  V30 BEGIN ATOM
M  V30 1 C 10.189730 7.537127 -9.791511 0 CFG=1
M  V30 2 F 12.112608 8.913007 -9.489077 0
M  V30 3 C 7.705163 5.040896 -13.275654 0
M  V30 4 C 6.192430 4.823858 -13.390006 0
M  V30 5 O 10.165533 5.331070 -12.010689 0
M  V30 6 O 5.388859 6.686015 -12.060532 0
M  V30 7 O 9.375410 8.673209 -9.617144 0
M  V30 8 C 5.623573 5.290233 -12.045790 0 CFG=2
M  V30 9 C 9.387189 6.260939 -7.707169 0
M  V30 10 N 7.927210 5.095996 -11.837000 0
M  V30 11 C 11.529711 7.793158 -9.065159 0 CFG=1
M  V30 12 F 10.623236 6.446395 -5.711014 0
M  V30 13 C 10.757199 6.440991 -7.038339 0 CFG=2
M  V30 14 C 9.163850 5.236374 -11.306230 0
M  V30 15 C 10.960250 8.979857 -6.838201 0
M  V30 16 N 9.154078 5.253902 -9.920334 0
M  V30 17 C 9.537183 6.256088 -9.215839 0
M  V30 18 C 6.717327 5.027022 -11.025051 0
M  V30 19 C 11.500296 7.711745 -7.512733 0 CFG=2
M  V30 20 H 10.394329 7.474232 -10.858083 0
M  V30 21 H 7.998604 5.984334 -13.736620 0
M  V30 22 H 8.266819 4.231365 -13.745242 0
M  V30 23 H 5.993086 3.758127 -13.510982 0
M  V30 24 H 5.749994 5.331762 -14.246657 0
M  V30 25 H 5.652632 7.040351 -11.220122 0
M  V30 26 H 8.452194 8.390222 -9.596057 0
M  V30 27 H 4.705042 4.767989 -11.783521 0
M  V30 28 H 8.706857 7.064070 -7.422865 0
M  V30 29 H 8.925978 5.327690 -7.379227 0
M  V30 30 H 12.204593 7.027165 -9.425348 0
M  V30 31 H 11.364563 5.564264 -7.258668 0
M  V30 32 H 9.943615 9.186939 -7.167665 0
M  V30 33 H 10.931754 8.902963 -5.752456 0
M  V30 34 H 11.583054 9.839810 -7.083539 0
M  V30 35 H 6.675475 5.742484 -10.208227 0
M  V30 36 H 6.620959 4.030912 -10.594292 0
M  V30 37 H 12.536036 7.631787 -7.191364 0
M  V30 END ATOM
M  V30 BEGIN BOND
M  V30 1 1 4 3
M  V30 2 1 7 1
M  V30 3 1 8 4
M  V30 4 1 8 6
M  V30 5 1 10 3
M  V30 6 1 11 1
M  V30 7 1 11 2
M  V30 8 1 13 9
M  V30 9 1 13 12
M  V30 10 2 14 5
M  V30 11 1 14 10
M  V30 12 1 16 14
M  V30 13 1 17 1
M  V30 14 1 17 9
M  V30 15 2 17 16
M  V30 16 1 18 8
M  V30 17 1 18 10
M  V30 18 1 19 11
M  V30 19 1 19 13
M  V30 20 1 19 15
M  V30 21 1 1 20 CFG=3
M  V30 22 1 21 3
M  V30 23 1 22 3
M  V30 24 1 23 4
M  V30 25 1 24 4
M  V30 26 1 25 6
M  V30 27 1 26 7
M  V30 28 1 8 27 CFG=1
M  V30 29 1 28 9
M  V30 30 1 29 9
M  V30 31 1 11 30 CFG=3
M  V30 32 1 13 31 CFG=1
M  V30 33 1 32 15
M  V30 34 1 33 15
M  V30 35 1 34 15
M  V30 36 1 35 18
M  V30 37 1 36 18
M  V30 38 1 19 37 CFG=1
M  V30 END BOND
M  V30 END CTAB
M  END
>  <i_epik_Tot_Q>  (1) 
0

>  <i_epik_Tot_abs_Q>  (1) 
0

>  <i_i_glide_confnum>  (1) 
10

>  <i_i_glide_lignum>  (1) 
160

>  <i_i_glide_posenum>  (1) 
54

>  <i_i_glide_rotatable_bonds>  (1) 
4

>  <i_lp_mmshare_version>  (1) 
72125

>  <i_m_source_file_index>  (1) 
89

>  <i_f3d_flags>  (1) 
0

>  <num_sample>  (1) 
100

>  <b_lp_Chiralities_Consistent>  (1) 
1

>  <r_epik_Charging_Adjusted_Penalty>  (1) 
0.16120785643113181

>  <r_epik_Ionization_Penalty>  (1) 
0.1612079103687071

>  <r_epik_Ionization_Penalty_Charging>  (1) 
0

>  <r_epik_Ionization_Penalty_Neutral>  (1) 
0.1612079103687071

>  <r_epik_State_Penalty>  (1) 
0.16120785643113181

>  <r_glide_ring_energy>  (1) 
0.40670562658453302

>  <r_i_docking_score>  (1) 
-6.2344431895260914

>  <r_i_glide_ecoul>  (1) 
-6.4279358718359694

>  <r_i_glide_eff_state_penalty>  (1) 
0.16120785643113181

>  <r_i_glide_einternal>  (1) 
7.6271971543218449

>  <r_i_glide_emodel>  (1) 
-37.515888151001228

>  <r_i_glide_emodel_strain>  (1) 
1.810059441095909

>  <r_i_glide_energy>  (1) 
-31.551920269309829

>  <r_i_glide_erotb>  (1) 
0.47132455663783185

>  <r_i_glide_esite>  (1) 
-0.089593945287771024

>  <r_i_glide_evdw>  (1) 
-25.123984397473858

>  <r_i_glide_gscore>  (1) 
-6.3956510459572229

>  <r_i_glide_gscore_strain>  (1) 
0

>  <r_i_glide_hbond>  (1) 
-0.21314878385386757

>  <r_i_glide_ligand_efficiency>  (1) 
-0.32812858892242586

>  <r_i_glide_ligand_efficiency_ln>  (1) 
-1.5805652521067994

>  <r_i_glide_ligand_efficiency_sa>  (1) 
-0.87557886767340665

>  <r_i_glide_lipo>  (1) 
-1.0191380462240935

>  <r_i_glide_metal>  (1) 
-0

>  <r_i_glide_rewards>  (1) 
-3.3247052265802339

>  <r_lp_Energy>  (1) 
17.035233999999999

>  <s_epik_Chemistry_Notes>  (1) 
This compound has an imine and may undergo hydrolysis.

>  <s_epik_cmdline>  (1) 
J2VwaWtfcHl0aG9uJywgJy1waHQnLCAnMS4wJywgJy1waCcsICc3LjQnLCAnLXRuJywgJzgnLCAnLW1hJywgJzUwMCcsICctaW1hZScsICc8aW5maWxlLm1hZT4nLCAnLW9tYWUnLCAnPG91dGZpbGUubWFlPic=

>  <s_epik_input>  (1) 
W09IXVtDQEhdMVtDQEBIXShGKVtDQEBIXShbQ0gzXSlbQ0BASF0oRilbQ0gyXUNcMT1OXEMoPU8pTihbQ0gyXTIpW0NIMl1bQ0gyXVtDQEBIXTJbT0hd

>  <s_glide_docking_method>  (1) 
confgen

>  <s_i_glide_gridfile>  (1) 
gpcr_drd2_6luq_protein_autoprepared_prepared

>  <s_lp_Force_Field>  (1) 
S-OPLS

>  <s_lp_Variant>  (1) 
DiffSBDD_88-1

>  <s_m_source_file>  (1) 
generated_generic_title2_ligand_DiffSBDD_2026-06-23_prepared.sdf

>  <GenAI_Model>  (1) 
DiffSBDD

>  <Protein>  (1) 
generic_title2

$$$$
DiffSBDD_19
     RDKit          3D

  0  0  0  0  0  0  0  0  0  0999 V3000
M  V30 BEGIN CTAB
M  V30 COUNTS 40 43 0 0 1
M  V30 BEGIN ATOM
M  V30 1 C 7.913073 5.645258 -12.145670 0 CFG=1
M  V30 2 C 10.617259 8.829961 -7.104796 0 CFG=1
M  V30 3 N 10.293040 7.213145 -9.635563 0
M  V30 4 C 11.966992 8.715480 -3.730338 0 CFG=2
M  V30 5 O 8.668940 5.107378 -13.246102 0
M  V30 6 C 11.661871 8.259948 -8.037229 0 CFG=1
M  V30 7 C 9.775409 6.845816 -10.829996 0
M  V30 8 C 11.375410 6.710297 -5.024307 0
M  V30 9 C 11.775410 7.230359 -3.896987 0
M  V30 10 C 7.629329 4.278835 -12.725493 0
M  V30 11 F 5.768945 6.576794 -12.072339 0
M  V30 12 C 10.713377 7.323988 -7.308061 0 CFG=2
M  V30 13 C 8.655648 5.784400 -10.821175 0
M  V30 14 C 11.017737 9.754023 -5.938067 0
M  V30 15 C 12.246490 9.459204 -5.058194 0
M  V30 16 C 7.011375 6.820815 -12.483137 0
M  V30 17 C 9.830386 6.675346 -8.365303 0
M  V30 18 F 12.975412 8.920976 -2.894266 0
M  V30 19 C 11.145019 6.373834 -6.262748 0
M  V30 20 C 11.393327 8.158367 -9.521997 0
M  V30 21 O 10.175412 7.314015 -11.896016 0
M  V30 22 H 9.700794 9.190225 -7.564875 0
M  V30 23 H 11.122477 9.190227 -3.229714 0
M  V30 24 H 12.705171 8.286860 -7.729550 0
M  V30 25 H 12.051644 6.606971 -3.059041 0
M  V30 26 H 7.984026 3.391663 -12.205919 0
M  V30 27 H 6.775787 4.153750 -13.388378 0
M  V30 28 H 9.107426 4.825373 -10.567082 0
M  V30 29 H 7.915880 5.990226 -10.049383 0
M  V30 30 H 10.175409 9.875340 -5.270475 0
M  V30 31 H 11.180736 10.735294 -6.384560 0
M  V30 32 H 12.575407 10.390227 -4.675263 0
M  V30 33 H 13.127125 9.190227 -5.629318 0
M  V30 34 H 7.347261 7.740841 -12.003574 0
M  V30 35 H 6.975730 6.979763 -13.560729 0
M  V30 36 H 8.787224 6.923727 -8.167071 0
M  V30 37 H 9.933891 5.588892 -8.356497 0
M  V30 38 H 11.187127 5.339518 -6.556363 0
M  V30 39 H 11.134862 9.136799 -9.927281 0
M  V30 40 H 12.279560 7.783902 -10.035993 0
M  V30 END ATOM
M  V30 BEGIN BOND
M  V30 1 1 5 1
M  V30 2 1 6 2
M  V30 3 1 7 3
M  V30 4 1 9 4
M  V30 5 2 9 8
M  V30 6 1 10 1
M  V30 7 1 10 5
M  V30 8 1 12 2
M  V30 9 1 12 6
M  V30 10 1 1 13 CFG=1
M  V30 11 1 13 7
M  V30 12 1 14 2
M  V30 13 1 15 4
M  V30 14 1 15 14
M  V30 15 1 16 1
M  V30 16 1 16 11
M  V30 17 1 17 3
M  V30 18 1 12 17 CFG=3
M  V30 19 1 18 4
M  V30 20 2 19 8
M  V30 21 1 19 12
M  V30 22 1 20 3
M  V30 23 1 20 6
M  V30 24 2 21 7
M  V30 25 1 2 22 CFG=3
M  V30 26 1 4 23 CFG=1
M  V30 27 1 6 24 CFG=3
M  V30 28 1 25 9
M  V30 29 1 26 10
M  V30 30 1 27 10
M  V30 31 1 28 13
M  V30 32 1 29 13
M  V30 33 1 30 14
M  V30 34 1 31 14
M  V30 35 1 32 15
M  V30 36 1 33 15
M  V30 37 1 34 16
M  V30 38 1 35 16
M  V30 39 1 36 17
M  V30 40 1 37 17
M  V30 41 1 38 19
M  V30 42 1 39 20
M  V30 43 1 40 20
M  V30 END BOND
M  V30 END CTAB
M  END
>  <i_epik_Tot_Q>  (1) 
0

>  <i_epik_Tot_abs_Q>  (1) 
0

>  <i_i_glide_confnum>  (1) 
5

>  <i_i_glide_lignum>  (1) 
36

>  <i_i_glide_posenum>  (1) 
289

>  <i_i_glide_rotatable_bonds>  (1) 
4

>  <i_lp_mmshare_version>  (1) 
72125

>  <i_m_source_file_index>  (1) 
20

>  <i_f3d_flags>  (1) 
0

>  <num_sample>  (1) 
100

>  <b_lp_Chiralities_Consistent>  (1) 
1

>  <r_epik_Charging_Adjusted_Penalty>  (1) 
0

>  <r_epik_Ionization_Penalty>  (1) 
4.7432699255447401e-09

>  <r_epik_Ionization_Penalty_Charging>  (1) 
0

>  <r_epik_Ionization_Penalty_Neutral>  (1) 
4.7432699255447401e-09

>  <r_epik_State_Penalty>  (1) 
-0

>  <r_glide_ring_energy>  (1) 
0

>  <r_i_docking_score>  (1) 
-6.2327470776640528

>  <r_i_glide_ecoul>  (1) 
-0.41592131055146275

>  <r_i_glide_eff_state_penalty>  (1) 
-0

>  <r_i_glide_einternal>  (1) 
0.81979639141132266

>  <r_i_glide_emodel>  (1) 
-35.519856557180212

>  <r_i_glide_emodel_strain>  (1) 
1.2478563295234153

>  <r_i_glide_energy>  (1) 
-27.121868050113903

>  <r_i_glide_erotb>  (1) 
0.62952724297124418

>  <r_i_glide_esite>  (1) 
-0.18013897890720557

>  <r_i_glide_evdw>  (1) 
-26.705946739562442

>  <r_i_glide_gscore>  (1) 
-6.2327470776640528

>  <r_i_glide_gscore_strain>  (1) 
0

>  <r_i_glide_hbond>  (1) 
0

>  <r_i_glide_ligand_efficiency>  (1) 
-0.29679747988876443

>  <r_i_glide_ligand_efficiency_ln>  (1) 
-1.5410341205010933

>  <r_i_glide_ligand_efficiency_sa>  (1) 
-0.81884174275410171

>  <r_i_glide_lipo>  (1) 
-2.5837788430551814

>  <r_i_glide_metal>  (1) 
-0

>  <r_i_glide_rewards>  (1) 
-2.7006709651120691

>  <r_lp_Energy>  (1) 
2.731881

>  <r_lp_tautomer_probability>  (1) 
1

>  <s_epik_cmdline>  (1) 
J2VwaWtfcHl0aG9uJywgJy1waHQnLCAnMS4wJywgJy1waCcsICc3LjQnLCAnLXRuJywgJzgnLCAnLW1hJywgJzUwMCcsICctaW1hZScsICc8aW5maWxlLm1hZT4nLCAnLW9tYWUnLCAnPG91dGZpbGUubWFlPic=

>  <s_epik_input>  (1) 
W0NIMl0xT0MxKFtDSDJdRilbQ0gyXUMoPU8pTihbQ0gyXTIpW0NIMl1bQ0BIXTNbQ0BASF0oQzIzNClbQ0gyXVtDSDJdW0NASF0oRilbQ0hdPUM9W0NIXTQ=

>  <s_glide_docking_method>  (1) 
confgen

>  <s_i_glide_gridfile>  (1) 
gpcr_drd2_6luq_protein_autoprepared_prepared

>  <s_lp_Force_Field>  (1) 
S-OPLS

>  <s_lp_Variant>  (1) 
DiffSBDD_19-1

>  <s_m_source_file>  (1) 
generated_generic_title2_ligand_DiffSBDD_2026-06-23_prepared.sdf

>  <GenAI_Model>  (1) 
DiffSBDD

>  <Protein>  (1) 
generic_title2

$$$$
DiffSBDD_94
     RDKit          3D

  0  0  0  0  0  0  0  0  0  0999 V3000
M  V30 BEGIN CTAB
M  V30 COUNTS 66 70 0 0 1
M  V30 BEGIN ATOM
M  V30 1 C 8.930104 4.831636 -12.918326 0
M  V30 2 C 10.516752 5.677764 -8.256856 0
M  V30 3 O 13.928272 9.590221 -4.785032 0
M  V30 4 C 8.864885 4.519209 -11.441545 0
M  V30 5 C 12.571520 9.322547 -4.765692 0 CFG=1
M  V30 6 N 4.058512 7.190053 -17.609970 0
M  V30 7 C 4.748644 7.012468 -18.766470 0
M  V30 8 C 8.754712 6.318886 -13.173882 0 CFG=2
M  V30 9 C 5.866198 6.306442 -16.421627 0
M  V30 10 C 12.233231 8.132811 -3.887813 0 CFG=1
M  V30 11 Cl 11.451161 6.790235 -12.785161 0
M  V30 12 C 11.805184 9.536141 -3.483875 0
M  V30 13 C 6.434982 5.944378 -15.054935 0 CFG=2
M  V30 14 C 8.405366 5.511804 -8.222085 0
M  V30 15 C 9.488030 5.045899 -9.158413 0 CFG=1
M  V30 16 C 9.756085 7.131843 -12.360766 0 CFG=2
M  V30 17 C 10.838146 7.274195 -5.875827 0 CFG=1
M  V30 18 C 5.639246 4.873462 -14.301241 0
M  V30 19 C 6.036840 6.461125 -18.804729 0
M  V30 20 O 10.014393 7.703144 -10.080041 0
M  V30 21 N 4.622744 6.847631 -16.435328 0
M  V30 22 N 9.411658 6.414216 -7.670889 0 CFG=1 CHG=1
M  V30 23 C 11.353880 7.031124 -4.443151 0
M  V30 24 N 9.375391 5.546893 -10.519206 0
M  V30 25 F 13.214219 7.607520 -3.072210 0
M  V30 26 C 9.516529 6.557770 -6.227508 0
M  V30 27 C 6.616319 6.092426 -17.591025 0
M  V30 28 C 12.006437 9.565434 -6.131028 0
M  V30 29 O 9.775458 9.186130 -6.840497 0
M  V30 30 C 9.710241 6.824738 -10.886535 0
M  V30 31 C 6.641717 7.176750 -14.159801 0
M  V30 32 C 10.775381 8.727385 -6.326917 0
M  V30 33 N 7.377772 6.816937 -12.927479 0 CHG=1
M  V30 34 H 8.212285 4.222733 -13.464246 0
M  V30 35 H 9.902084 4.518342 -13.296143 0
M  V30 36 H 11.297062 6.299265 -8.696706 0
M  V30 37 H 10.974497 4.958344 -7.585013 0
M  V30 38 H 14.402163 8.807444 -5.021107 0
M  V30 39 H 9.375382 3.569178 -11.271812 0
M  V30 40 H 7.822202 4.346378 -11.169273 0
M  V30 41 H 4.254697 7.319239 -19.675841 0
M  V30 42 H 8.974084 6.390230 -14.223337 0
M  V30 43 H 12.328854 9.989672 -2.645149 0
M  V30 44 H 10.764518 9.832358 -3.582695 0
M  V30 45 H 7.394381 5.488277 -15.282996 0
M  V30 46 H 8.062930 4.704453 -7.584859 0
M  V30 47 H 7.577468 5.990202 -8.733354 0
M  V30 48 H 9.656957 3.990227 -9.113717 0
M  V30 49 H 9.605083 8.202417 -12.503507 0
M  V30 50 H 11.640837 6.863927 -6.484256 0
M  V30 51 H 5.775401 3.912993 -14.784990 0
M  V30 52 H 5.982435 4.709203 -13.281907 0
M  V30 53 H 4.589028 5.157809 -14.231933 0
M  V30 54 H 6.562065 6.328647 -19.739525 0
M  V30 55 H 10.575438 6.790175 -3.736901 0
M  V30 56 H 11.948946 6.117222 -4.474624 0
M  V30 57 H 9.475763 5.590255 -5.759412 0
M  V30 58 H 8.622711 7.122106 -5.985029 0
M  V30 59 H 7.607432 5.662472 -17.553957 0
M  V30 60 H 11.777669 10.625218 -6.252166 0
M  V30 61 H 12.735375 9.285918 -6.891731 0
M  V30 62 H 5.671486 7.590142 -13.877670 0
M  V30 63 H 7.184551 7.959180 -14.695178 0
M  V30 64 H 6.858842 6.116480 -12.416870 0
M  V30 65 H 7.423715 7.639090 -12.338081 0
M  V30 66 H 9.316967 7.314789 -8.131885 0
M  V30 END ATOM
M  V30 BEGIN BOND
M  V30 1 1 4 1
M  V30 2 1 5 3 CFG=1
M  V30 3 1 7 6
M  V30 4 1 8 1
M  V30 5 1 10 5
M  V30 6 1 12 5
M  V30 7 1 12 10
M  V30 8 1 13 9
M  V30 9 1 15 2
M  V30 10 1 15 14
M  V30 11 1 16 8
M  V30 12 1 16 11
M  V30 13 1 18 13
M  V30 14 2 19 7
M  V30 15 2 21 6
M  V30 16 1 21 9
M  V30 17 1 22 2
M  V30 18 1 22 14
M  V30 19 1 23 10
M  V30 20 1 23 17
M  V30 21 1 24 4
M  V30 22 1 24 15
M  V30 23 1 10 25 CFG=1
M  V30 24 1 26 17
M  V30 25 1 26 22
M  V30 26 2 27 9
M  V30 27 1 27 19
M  V30 28 1 28 5
M  V30 29 1 30 16
M  V30 30 2 30 20
M  V30 31 1 30 24
M  V30 32 1 31 13
M  V30 33 1 32 17
M  V30 34 1 32 28
M  V30 35 2 32 29
M  V30 36 1 33 8
M  V30 37 1 33 31
M  V30 38 1 34 1
M  V30 39 1 35 1
M  V30 40 1 36 2
M  V30 41 1 37 2
M  V30 42 1 38 3
M  V30 43 1 39 4
M  V30 44 1 40 4
M  V30 45 1 41 7
M  V30 46 1 8 42 CFG=3
M  V30 47 1 43 12
M  V30 48 1 44 12
M  V30 49 1 13 45 CFG=3
M  V30 50 1 46 14
M  V30 51 1 47 14
M  V30 52 1 15 48 CFG=3
M  V30 53 1 16 49 CFG=1
M  V30 54 1 17 50 CFG=3
M  V30 55 1 51 18
M  V30 56 1 52 18
M  V30 57 1 53 18
M  V30 58 1 54 19
M  V30 59 1 55 23
M  V30 60 1 56 23
M  V30 61 1 57 26
M  V30 62 1 58 26
M  V30 63 1 59 27
M  V30 64 1 60 28
M  V30 65 1 61 28
M  V30 66 1 62 31
M  V30 67 1 63 31
M  V30 68 1 64 33
M  V30 69 1 65 33
M  V30 70 1 22 66 CFG=3
M  V30 END BOND
M  V30 END CTAB
M  END
>  <i_epik_Tot_Q>  (1) 
2

>  <i_epik_Tot_abs_Q>  (1) 
2

>  <i_i_glide_confnum>  (1) 
192

>  <i_i_glide_lignum>  (1) 
178

>  <i_i_glide_posenum>  (1) 
37

>  <i_i_glide_rotatable_bonds>  (1) 
8

>  <i_lp_mmshare_version>  (1) 
72125

>  <i_m_source_file_index>  (1) 
95

>  <i_f3d_flags>  (1) 
0

>  <num_sample>  (1) 
100

>  <b_lp_Chiralities_Consistent>  (1) 
1

>  <r_epik_Charging_Adjusted_Penalty>  (1) 
0.95188217531897845

>  <r_epik_Ionization_Penalty>  (1) 
0.49022780398244736

>  <r_epik_Ionization_Penalty_Charging>  (1) 
0.49020808109847258

>  <r_epik_Ionization_Penalty_Neutral>  (1) 
1.9722883974789891e-05

>  <r_epik_State_Penalty>  (1) 
0.46167409422050587

>  <r_glide_ring_energy>  (1) 
1.3165782718525243

>  <r_i_docking_score>  (1) 
-6.2306386103965643

>  <r_i_glide_ecoul>  (1) 
-5.5467524160330903

>  <r_i_glide_eff_state_penalty>  (1) 
0.46167409422050587

>  <r_i_glide_einternal>  (1) 
9.5166703941383552

>  <r_i_glide_emodel>  (1) 
-34.041744458406939

>  <r_i_glide_emodel_strain>  (1) 
2.0086029795018305

>  <r_i_glide_energy>  (1) 
-25.813280410980976

>  <r_i_glide_erotb>  (1) 
0.52401424714319955

>  <r_i_glide_esite>  (1) 
-0.17117672008957308

>  <r_i_glide_evdw>  (1) 
-20.266527994947886

>  <r_i_glide_gscore>  (1) 
-6.6923127046170698

>  <r_i_glide_gscore_strain>  (1) 
0

>  <r_i_glide_hbond>  (1) 
0

>  <r_i_glide_ligand_efficiency>  (1) 
-0.18880723061807769

>  <r_i_glide_ligand_efficiency_ln>  (1) 
-1.3856617664320172

>  <r_i_glide_ligand_efficiency_sa>  (1) 
-0.6056056739589234

>  <r_i_glide_lipo>  (1) 
-3.4990600899780331

>  <r_i_glide_metal>  (1) 
-0

>  <r_i_glide_rewards>  (1) 
-1.7007508795403059

>  <r_lp_Energy>  (1) 
61.542628999999998

>  <r_lp_tautomer_probability>  (1) 
0.99999998000000001

>  <s_epik_cmdline>  (1) 
J2VwaWtfcHl0aG9uJywgJy1waHQnLCAnMS4wJywgJy1waCcsICc3LjQnLCAnLXRuJywgJzgnLCAnLW1hJywgJzUwMCcsICctaW1hZScsICc8aW5maWxlLm1hZT4nLCAnLW9tYWUnLCAnPG91dGZpbGUubWFlPic=

>  <s_epik_input>  (1) 
W2NIXTFbY0hdW2NIXW5uYzFbQ0BIXShbQ0gzXSlbQ0gyXVtOSF1bQ0BASF0yW0NIMl1bQ0gyXU4oQyg9TylbQ0BIXTJDbClbQ0hdM1tDSDJdTihbQ0gyXTMpW0NIMl1bQ0BASF0oQyg9TylbQ0gyXTQpW0NIMl1bQ0BdKEYpKFtDSDJdNSlbQ0BAXTQ1W09IXQ==

>  <s_glide_docking_method>  (1) 
confgen

>  <s_i_glide_gridfile>  (1) 
gpcr_drd2_6luq_protein_autoprepared_prepared

>  <s_lp_Force_Field>  (1) 
S-OPLS

>  <s_lp_Variant>  (1) 
DiffSBDD_94-1

>  <s_m_source_file>  (1) 
generated_generic_title2_ligand_DiffSBDD_2026-06-23_prepared.sdf

>  <GenAI_Model>  (1) 
DiffSBDD

>  <Protein>  (1) 
generic_title2

$$$$
DiffSBDD_36
     RDKit          3D

  0  0  0  0  0  0  0  0  0  0999 V3000
M  V30 BEGIN CTAB
M  V30 COUNTS 49 51 0 0 1
M  V30 BEGIN ATOM
M  V30 1 C 6.224474 3.635905 -12.036052 0
M  V30 2 C 11.169965 7.876787 -6.564692 0
M  V30 3 N 8.411139 5.990214 -10.368524 0
M  V30 4 O 11.645536 7.590207 -10.541750 0 CHG=-1
M  V30 5 C 11.667049 9.830452 -5.678718 0
M  V30 6 O 6.613164 6.872261 -13.684813 0
M  V30 7 C 6.812074 5.490941 -13.447088 0 CFG=2
M  V30 8 C 11.534633 9.005928 -4.652237 0
M  V30 9 C 11.453975 9.138514 -6.846594 0
M  V30 10 C 9.718217 6.324102 -9.822935 0 CFG=2
M  V30 11 C 12.175408 8.365041 -2.425900 0
M  V30 12 C 5.775774 4.647002 -14.197150 0
M  V30 13 C 11.731474 6.589732 -4.078698 0
M  V30 14 C 10.911176 6.781395 -7.581545 0
M  V30 15 O 9.040121 4.326055 -11.761698 0
M  V30 16 C 9.605019 6.946131 -8.404779 0
M  V30 17 C 5.224418 3.643140 -13.185039 0
M  V30 18 C 5.742085 5.924643 -11.129112 0
M  V30 19 C 10.438199 7.337909 -10.759961 0
M  V30 20 C 8.176543 5.100283 -11.344221 0
M  V30 21 C 12.197213 6.963609 -2.858182 0
M  V30 22 O 9.775471 7.885692 -11.669038 0
M  V30 23 C 11.058880 7.562328 -5.032487 0 CFG=2
M  V30 24 C 6.753064 5.079940 -11.948411 0 CFG=1
M  V30 25 C 11.872096 9.345904 -3.295809 0
M  V30 26 H 5.776207 3.293811 -11.103396 0
M  V30 27 H 7.016371 2.933350 -12.299205 0
M  V30 28 H 7.665125 6.638650 -10.095293 0
M  V30 29 H 12.005181 10.853225 -5.617328 0
M  V30 30 H 7.066555 7.110291 -14.478503 0
M  V30 31 H 7.792270 5.249282 -13.864873 0
M  V30 32 H 11.558521 9.545922 -7.842894 0
M  V30 33 H 10.175424 5.351557 -9.732143 0
M  V30 34 H 12.455528 8.618094 -1.413429 0
M  V30 35 H 4.975568 5.265226 -14.599746 0
M  V30 36 H 6.248292 4.132841 -15.035269 0
M  V30 37 H 11.771263 5.563597 -4.381219 0
M  V30 38 H 10.936848 5.804912 -7.097782 0
M  V30 39 H 11.775421 6.790875 -8.238278 0
M  V30 40 H 9.338047 8.001663 -8.492139 0
M  V30 41 H 8.784368 6.484037 -7.853632 0
M  V30 42 H 4.252306 3.990155 -12.835306 0
M  V30 43 H 5.095362 2.639067 -13.585024 0
M  V30 44 H 4.721844 5.801005 -11.474957 0
M  V30 45 H 5.750308 5.640545 -10.077293 0
M  V30 46 H 5.957422 6.989868 -11.185025 0
M  V30 47 H 12.614397 6.214380 -2.200317 0
M  V30 48 H 9.993113 7.440603 -4.865486 0
M  V30 49 H 11.913337 10.375933 -2.982826 0
M  V30 END ATOM
M  V30 BEGIN BOND
M  V30 1 1 7 6
M  V30 2 2 8 5
M  V30 3 2 9 2
M  V30 4 1 9 5
M  V30 5 1 10 3
M  V30 6 1 12 7
M  V30 7 1 14 2
M  V30 8 1 16 10
M  V30 9 1 16 14
M  V30 10 1 17 1
M  V30 11 1 17 12
M  V30 12 1 19 4
M  V30 13 1 19 10
M  V30 14 1 20 3
M  V30 15 2 20 15
M  V30 16 1 21 11
M  V30 17 2 21 13
M  V30 18 2 22 19
M  V30 19 1 23 2
M  V30 20 1 23 8
M  V30 21 1 23 13
M  V30 22 1 24 1
M  V30 23 1 24 7
M  V30 24 1 24 18 CFG=1
M  V30 25 1 24 20
M  V30 26 1 25 8
M  V30 27 2 25 11
M  V30 28 1 26 1
M  V30 29 1 27 1
M  V30 30 1 28 3
M  V30 31 1 29 5
M  V30 32 1 30 6
M  V30 33 1 7 31 CFG=3
M  V30 34 1 32 9
M  V30 35 1 10 33 CFG=1
M  V30 36 1 34 11
M  V30 37 1 35 12
M  V30 38 1 36 12
M  V30 39 1 37 13
M  V30 40 1 38 14
M  V30 41 1 39 14
M  V30 42 1 40 16
M  V30 43 1 41 16
M  V30 44 1 42 17
M  V30 45 1 43 17
M  V30 46 1 44 18
M  V30 47 1 45 18
M  V30 48 1 46 18
M  V30 49 1 47 21
M  V30 50 1 23 48 CFG=3
M  V30 51 1 49 25
M  V30 END BOND
M  V30 END CTAB
M  END
>  <i_epik_Tot_Q>  (1) 
-1

>  <i_epik_Tot_abs_Q>  (1) 
1

>  <i_i_glide_confnum>  (1) 
28

>  <i_i_glide_lignum>  (1) 
61

>  <i_i_glide_posenum>  (1) 
353

>  <i_i_glide_rotatable_bonds>  (1) 
8

>  <i_lp_mmshare_version>  (1) 
72125

>  <i_m_source_file_index>  (1) 
37

>  <i_f3d_flags>  (1) 
0

>  <num_sample>  (1) 
100

>  <b_lp_Chiralities_Consistent>  (1) 
1

>  <r_epik_Charging_Adjusted_Penalty>  (1) 
6.3624129575878713e-05

>  <r_epik_Ionization_Penalty>  (1) 
6.3751974232529901e-05

>  <r_epik_Ionization_Penalty_Charging>  (1) 
6.3624129575878713e-05

>  <r_epik_Ionization_Penalty_Neutral>  (1) 
1.2784465665118319e-07

>  <r_epik_State_Penalty>  (1) 
-0

>  <r_glide_ring_energy>  (1) 
0

>  <r_i_docking_score>  (1) 
-6.220722368736217

>  <r_i_glide_ecoul>  (1) 
-3.746443743069293

>  <r_i_glide_eff_state_penalty>  (1) 
-0

>  <r_i_glide_einternal>  (1) 
7.0230491533553732

>  <r_i_glide_emodel>  (1) 
-38.152777298154128

>  <r_i_glide_emodel_strain>  (1) 
4.2071434076462992

>  <r_i_glide_energy>  (1) 
-34.418626185353631

>  <r_i_glide_erotb>  (1) 
0.80862173255752579

>  <r_i_glide_esite>  (1) 
-0.13729345726974868

>  <r_i_glide_evdw>  (1) 
-30.672182442284335

>  <r_i_glide_gscore>  (1) 
-6.220722368736217

>  <r_i_glide_gscore_strain>  (1) 
0.051785851911574809

>  <r_i_glide_hbond>  (1) 
-0.16

>  <r_i_glide_ligand_efficiency>  (1) 
-0.24882889474944869

>  <r_i_glide_ligand_efficiency_ln>  (1) 
-1.4744976213967034

>  <r_i_glide_ligand_efficiency_sa>  (1) 
-0.72758010202729029

>  <r_i_glide_lipo>  (1) 
-3.0534489300455081

>  <r_i_glide_metal>  (1) 
-0

>  <r_i_glide_rewards>  (1) 
-1.6348118823154498

>  <r_lp_Energy>  (1) 
45.619743

>  <r_lp_tautomer_probability>  (1) 
1

>  <s_epik_cmdline>  (1) 
J2VwaWtfcHl0aG9uJywgJy1waHQnLCAnMS4wJywgJy1waCcsICc3LjQnLCAnLXRuJywgJzgnLCAnLW1hJywgJzUwMCcsICctaW1hZScsICc8aW5maWxlLm1hZT4nLCAnLW9tYWUnLCAnPG91dGZpbGUubWFlPic=

>  <s_epik_input>  (1) 
W09IXVtDQEBIXTFbQ0gyXVtDSDJdW0NIMl1bQ0BAXTEoW0NIM10pQyg9TylbTkhdW0NAQEhdKEMoPU8pW09IXSlbQ0gyXVtDSDJdQyg9W0NIXVtDSF09MilbQ0BIXShDMjMpW0NIXT1bQ0hdW0NIXT1bQ0hdMw==

>  <s_glide_docking_method>  (1) 
confgen

>  <s_i_glide_gridfile>  (1) 
gpcr_drd2_6luq_protein_autoprepared_prepared

>  <s_lp_Force_Field>  (1) 
S-OPLS

>  <s_lp_Variant>  (1) 
DiffSBDD_36-1

>  <s_m_source_file>  (1) 
generated_generic_title2_ligand_DiffSBDD_2026-06-23_prepared.sdf

>  <GenAI_Model>  (1) 
DiffSBDD

>  <Protein>  (1) 
generic_title2

$$$$
DiffSBDD_36
     RDKit          3D

  0  0  0  0  0  0  0  0  0  0999 V3000
M  V30 BEGIN CTAB
M  V30 COUNTS 49 51 0 0 1
M  V30 BEGIN ATOM
M  V30 1 C 8.154344 5.990462 -13.798305 0
M  V30 2 C 10.972222 7.672699 -6.522042 0
M  V30 3 N 8.575400 5.974391 -10.672219 0
M  V30 4 O 10.651112 7.190224 -11.887973 0 CHG=-1
M  V30 5 C 11.785312 9.590638 -5.795839 0
M  V30 6 O 5.322085 5.153573 -13.408409 0
M  V30 7 C 6.232205 5.588278 -12.421089 0 CFG=2
M  V30 8 C 11.655438 8.830040 -4.717909 0
M  V30 9 C 11.375444 8.876802 -6.902347 0
M  V30 10 C 9.746353 6.274018 -9.842457 0 CFG=2
M  V30 11 C 12.385746 8.198577 -2.514716 0
M  V30 12 C 6.346751 7.116554 -12.562902 0
M  V30 13 C 11.569520 6.433268 -4.029440 0
M  V30 14 C 10.484993 6.561961 -7.431284 0
M  V30 15 O 9.375357 3.991280 -11.423876 0
M  V30 16 C 9.403226 6.925618 -8.482110 0
M  V30 17 C 7.590095 7.371754 -13.426639 0
M  V30 18 C 7.536314 3.563720 -13.368670 0
M  V30 19 C 10.717729 7.190228 -10.638679 0
M  V30 20 C 8.600136 4.941698 -11.545707 0
M  V30 21 C 12.175421 6.790258 -2.867779 0
M  V30 22 O 11.580124 7.836516 -10.002786 0
M  V30 23 C 10.975363 7.449350 -4.982335 0 CFG=2
M  V30 24 C 7.620509 4.993453 -12.751719 0 CFG=1
M  V30 25 C 12.156676 9.173457 -3.412558 0
M  V30 26 H 7.793593 5.721613 -14.791492 0
M  V30 27 H 9.243629 5.990192 -13.852247 0
M  V30 28 H 7.863553 6.695586 -10.714913 0
M  V30 29 H 12.246622 10.566169 -5.822085 0
M  V30 30 H 5.372766 4.211329 -13.452369 0
M  V30 31 H 5.864478 5.293384 -11.436797 0
M  V30 32 H 11.427111 9.223715 -7.923204 0
M  V30 33 H 10.175412 5.311507 -9.593000 0
M  V30 34 H 12.785119 8.452112 -1.543549 0
M  V30 35 H 5.449038 7.562534 -12.995712 0
M  V30 36 H 6.474661 7.579985 -11.585167 0
M  V30 37 H 11.440463 5.401429 -4.278402 0
M  V30 38 H 10.109021 5.747110 -6.812947 0
M  V30 39 H 11.375411 6.162664 -7.909332 0
M  V30 40 H 9.273915 8.004514 -8.582632 0
M  V30 41 H 8.454782 6.534058 -8.118093 0
M  V30 42 H 7.358057 7.955514 -14.317503 0
M  V30 43 H 8.320567 7.941681 -12.851468 0
M  V30 44 H 6.990228 3.538974 -14.312535 0
M  V30 45 H 8.524184 3.164400 -13.602070 0
M  V30 46 H 7.054097 2.864838 -12.684490 0
M  V30 47 H 12.533784 6.019124 -2.200387 0
M  V30 48 H 9.911319 7.465788 -4.785029 0
M  V30 49 H 12.376407 10.189703 -3.161466 0
M  V30 END ATOM
M  V30 BEGIN BOND
M  V30 1 1 7 6
M  V30 2 2 8 5
M  V30 3 2 9 2
M  V30 4 1 9 5
M  V30 5 1 10 3
M  V30 6 1 12 7
M  V30 7 1 14 2
M  V30 8 1 16 10
M  V30 9 1 16 14
M  V30 10 1 17 1
M  V30 11 1 17 12
M  V30 12 1 19 4
M  V30 13 1 19 10
M  V30 14 1 20 3
M  V30 15 2 20 15
M  V30 16 1 21 11
M  V30 17 2 21 13
M  V30 18 2 22 19
M  V30 19 1 23 2
M  V30 20 1 23 8
M  V30 21 1 23 13
M  V30 22 1 24 1
M  V30 23 1 24 7
M  V30 24 1 24 18 CFG=3
M  V30 25 1 24 20
M  V30 26 1 25 8
M  V30 27 2 25 11
M  V30 28 1 26 1
M  V30 29 1 27 1
M  V30 30 1 28 3
M  V30 31 1 29 5
M  V30 32 1 30 6
M  V30 33 1 7 31 CFG=1
M  V30 34 1 32 9
M  V30 35 1 10 33 CFG=1
M  V30 36 1 34 11
M  V30 37 1 35 12
M  V30 38 1 36 12
M  V30 39 1 37 13
M  V30 40 1 38 14
M  V30 41 1 39 14
M  V30 42 1 40 16
M  V30 43 1 41 16
M  V30 44 1 42 17
M  V30 45 1 43 17
M  V30 46 1 44 18
M  V30 47 1 45 18
M  V30 48 1 46 18
M  V30 49 1 47 21
M  V30 50 1 23 48 CFG=1
M  V30 51 1 49 25
M  V30 END BOND
M  V30 END CTAB
M  END
>  <i_epik_Tot_Q>  (1) 
-1

>  <i_epik_Tot_abs_Q>  (1) 
1

>  <i_i_glide_confnum>  (1) 
374

>  <i_i_glide_lignum>  (1) 
61

>  <i_i_glide_posenum>  (1) 
258

>  <i_i_glide_rotatable_bonds>  (1) 
8

>  <i_lp_mmshare_version>  (1) 
72125

>  <i_m_source_file_index>  (1) 
37

>  <i_f3d_flags>  (1) 
0

>  <num_sample>  (1) 
100

>  <b_lp_Chiralities_Consistent>  (1) 
1

>  <r_epik_Charging_Adjusted_Penalty>  (1) 
6.3624129575878713e-05

>  <r_epik_Ionization_Penalty>  (1) 
6.3751974232529901e-05

>  <r_epik_Ionization_Penalty_Charging>  (1) 
6.3624129575878713e-05

>  <r_epik_Ionization_Penalty_Neutral>  (1) 
1.2784465665118319e-07

>  <r_epik_State_Penalty>  (1) 
-0

>  <r_glide_ring_energy>  (1) 
0.8562244315245402

>  <r_i_docking_score>  (1) 
-6.2200823448060767

>  <r_i_glide_ecoul>  (1) 
-2.3194289573962483

>  <r_i_glide_eff_state_penalty>  (1) 
-0

>  <r_i_glide_einternal>  (1) 
14.383220039908341

>  <r_i_glide_emodel>  (1) 
-35.914746211799979

>  <r_i_glide_emodel_strain>  (1) 
1.9836501608795629

>  <r_i_glide_energy>  (1) 
-33.638365627840301

>  <r_i_glide_erotb>  (1) 
0.80862173255752579

>  <r_i_glide_esite>  (1) 
-0.091858224730684557

>  <r_i_glide_evdw>  (1) 
-31.318936670444049

>  <r_i_glide_gscore>  (1) 
-6.2200823448060767

>  <r_i_glide_gscore_strain>  (1) 
0

>  <r_i_glide_hbond>  (1) 
-0.11694458432241199

>  <r_i_glide_ligand_efficiency>  (1) 
-0.24880329379224306

>  <r_i_glide_ligand_efficiency_ln>  (1) 
-1.4743459165452906

>  <r_i_glide_ligand_efficiency_sa>  (1) 
-0.72750524437430586

>  <r_i_glide_lipo>  (1) 
-2.9080495594830946

>  <r_i_glide_metal>  (1) 
-0

>  <r_i_glide_rewards>  (1) 
-1.9979905316957713

>  <r_lp_Energy>  (1) 
45.619743

>  <r_lp_tautomer_probability>  (1) 
1

>  <s_epik_cmdline>  (1) 
J2VwaWtfcHl0aG9uJywgJy1waHQnLCAnMS4wJywgJy1waCcsICc3LjQnLCAnLXRuJywgJzgnLCAnLW1hJywgJzUwMCcsICctaW1hZScsICc8aW5maWxlLm1hZT4nLCAnLW9tYWUnLCAnPG91dGZpbGUubWFlPic=

>  <s_epik_input>  (1) 
W09IXVtDQEBIXTFbQ0gyXVtDSDJdW0NIMl1bQ0BAXTEoW0NIM10pQyg9TylbTkhdW0NAQEhdKEMoPU8pW09IXSlbQ0gyXVtDSDJdQyg9W0NIXVtDSF09MilbQ0BIXShDMjMpW0NIXT1bQ0hdW0NIXT1bQ0hdMw==

>  <s_glide_docking_method>  (1) 
confgen

>  <s_i_glide_gridfile>  (1) 
gpcr_drd2_6luq_protein_autoprepared_prepared

>  <s_lp_Force_Field>  (1) 
S-OPLS

>  <s_lp_Variant>  (1) 
DiffSBDD_36-1

>  <s_m_source_file>  (1) 
generated_generic_title2_ligand_DiffSBDD_2026-06-23_prepared.sdf

>  <GenAI_Model>  (1) 
DiffSBDD

>  <Protein>  (1) 
generic_title2

$$$$
DiffSBDD_83
     RDKit          3D

  0  0  0  0  0  0  0  0  0  0999 V3000
M  V30 BEGIN CTAB
M  V30 COUNTS 46 48 0 0 1
M  V30 BEGIN ATOM
M  V30 1 C 5.979720 4.546138 -12.918482 0
M  V30 2 C 12.186178 7.551819 -3.194742 0
M  V30 3 C 10.919963 6.967753 -5.193039 0
M  V30 4 C 9.622659 7.827723 -7.591433 0
M  V30 5 F 12.969544 9.782882 -2.920432 0
M  V30 6 C 11.495345 6.600713 -3.962555 0
M  V30 7 C 11.739464 9.246978 -4.888660 0
M  V30 8 C 7.325832 6.341910 -12.337663 0 CFG=1
M  V30 9 C 12.308422 8.872565 -3.657609 0
M  V30 10 N 6.588450 4.904082 -13.963669 0 CHG=1
M  V30 11 N 8.975412 6.790227 -10.485837 0 CFG=2 CHG=1
M  V30 12 C 6.175698 5.403989 -11.741876 0 CFG=2
M  V30 13 C 11.038147 8.302021 -5.660685 0
M  V30 14 C 6.485904 4.566200 -10.492680 0
M  V30 15 C 9.778010 7.137330 -11.651317 0
M  V30 16 O 10.477449 8.695947 -6.858606 0
M  V30 17 C 10.448347 6.878766 -8.478256 0
M  V30 18 F 12.734846 7.195518 -2.010358 0
M  V30 19 C 6.808076 7.213176 -14.767808 0
M  V30 20 C 9.579774 6.005192 -9.387687 0
M  V30 21 C 8.701999 6.077076 -11.724140 0 CFG=2
M  V30 22 C 7.398511 6.088456 -13.904152 0 CFG=1
M  V30 23 H 5.359842 3.656297 -12.929743 0
M  V30 24 H 10.386573 6.229216 -5.768211 0
M  V30 25 H 9.005166 8.468466 -8.220447 0
M  V30 26 H 8.921235 7.298601 -6.945620 0
M  V30 27 H 11.402781 5.590212 -3.605531 0
M  V30 28 H 11.835076 10.264259 -5.238611 0
M  V30 29 H 7.063041 7.384860 -12.144985 0
M  V30 30 H 5.680575 3.861456 -10.282170 0
M  V30 31 H 7.404145 3.990185 -10.582747 0
M  V30 32 H 6.578955 5.214206 -9.622910 0
M  V30 33 H 10.820770 6.852024 -11.515252 0
M  V30 34 H 9.562638 8.163249 -11.945987 0
M  V30 35 H 11.058221 6.223060 -7.859066 0
M  V30 36 H 11.154111 7.453541 -9.076812 0
M  V30 37 H 7.378622 8.135107 -14.667349 0
M  V30 38 H 6.815579 6.936106 -15.822435 0
M  V30 39 H 5.775979 7.437238 -14.495046 0
M  V30 40 H 8.784102 5.545584 -8.801539 0
M  V30 41 H 10.173540 5.184451 -9.779980 0
M  V30 42 H 9.047293 5.044830 -11.730593 0
M  V30 43 H 8.399935 5.811173 -14.235199 0
M  V30 44 H 8.225448 7.432932 -10.211410 0
M  V30 45 H 5.262208 5.978976 -11.582510 0
M  V30 46 H 6.518413 4.377905 -14.831847 0
M  V30 END ATOM
M  V30 BEGIN BOND
M  V30 1 1 6 2
M  V30 2 2 6 3
M  V30 3 2 9 2
M  V30 4 1 9 5
M  V30 5 1 9 7
M  V30 6 2 10 1
M  V30 7 1 12 1
M  V30 8 1 12 8
M  V30 9 1 13 3
M  V30 10 2 13 7
M  V30 11 1 14 12
M  V30 12 1 15 11
M  V30 13 1 16 4
M  V30 14 1 16 13
M  V30 15 1 17 4
M  V30 16 1 18 2
M  V30 17 1 20 11
M  V30 18 1 20 17
M  V30 19 1 21 8
M  V30 20 1 21 11
M  V30 21 1 21 15
M  V30 22 1 22 8
M  V30 23 1 22 10
M  V30 24 1 22 19
M  V30 25 1 23 1
M  V30 26 1 24 3
M  V30 27 1 25 4
M  V30 28 1 26 4
M  V30 29 1 27 6
M  V30 30 1 28 7
M  V30 31 1 8 29 CFG=3
M  V30 32 1 30 14
M  V30 33 1 31 14
M  V30 34 1 32 14
M  V30 35 1 33 15
M  V30 36 1 34 15
M  V30 37 1 35 17
M  V30 38 1 36 17
M  V30 39 1 37 19
M  V30 40 1 38 19
M  V30 41 1 39 19
M  V30 42 1 40 20
M  V30 43 1 41 20
M  V30 44 1 21 42 CFG=1
M  V30 45 1 22 43 CFG=3
M  V30 46 1 11 44 CFG=1
M  V30 47 1 12 45 CFG=1
M  V30 48 1 46 10
M  V30 END BOND
M  V30 END CTAB
M  END
>  <i_epik_Tot_Q>  (1) 
2

>  <i_epik_Tot_abs_Q>  (1) 
2

>  <i_i_glide_confnum>  (1) 
204

>  <i_i_glide_lignum>  (1) 
150

>  <i_i_glide_posenum>  (1) 
98

>  <i_i_glide_rotatable_bonds>  (1) 
6

>  <i_lp_mmshare_version>  (1) 
72125

>  <i_m_source_file_index>  (1) 
84

>  <i_f3d_flags>  (1) 
0

>  <num_sample>  (1) 
100

>  <b_lp_Chiralities_Consistent>  (1) 
1

>  <r_epik_Charging_Adjusted_Penalty>  (1) 
1.5610925274032894

>  <r_epik_Ionization_Penalty>  (1) 
5.6947270193771686

>  <r_epik_Ionization_Penalty_Charging>  (1) 
0.86989266313289404

>  <r_epik_Ionization_Penalty_Neutral>  (1) 
4.824834356244275

>  <r_epik_State_Penalty>  (1) 
0.69119986427039537

>  <r_glide_ring_energy>  (1) 
0

>  <r_i_docking_score>  (1) 
-6.2165580309747046

>  <r_i_glide_ecoul>  (1) 
-9.4185434480460106

>  <r_i_glide_eff_state_penalty>  (1) 
0.69119986427039537

>  <r_i_glide_einternal>  (1) 
3.705009175117441

>  <r_i_glide_emodel>  (1) 
-61.791901722598453

>  <r_i_glide_emodel_strain>  (1) 
0.59182816344391398

>  <r_i_glide_energy>  (1) 
-39.155881268926827

>  <r_i_glide_erotb>  (1) 
0.96167990521069524

>  <r_i_glide_esite>  (1) 
-0.10000000000000001

>  <r_i_glide_evdw>  (1) 
-29.737337820880814

>  <r_i_glide_gscore>  (1) 
-6.9077578952451004

>  <r_i_glide_gscore_strain>  (1) 
0

>  <r_i_glide_hbond>  (1) 
-0.20000000000000001

>  <r_i_glide_ligand_efficiency>  (1) 
-0.28257081958975933

>  <r_i_glide_ligand_efficiency_ln>  (1) 
-1.5195535372339057

>  <r_i_glide_ligand_efficiency_sa>  (1) 
-0.79177455018603338

>  <r_i_glide_lipo>  (1) 
-2.0951241906278759

>  <r_i_glide_metal>  (1) 
-0

>  <r_i_glide_rewards>  (1) 
-2.5746652015769764

>  <r_lp_Energy>  (1) 
38.261415

>  <r_lp_tautomer_probability>  (1) 
1

>  <s_epik_Chemistry_Notes>  (1) 
This compound has an imine and may undergo hydrolysis.

>  <s_epik_cmdline>  (1) 
J2VwaWtfcHl0aG9uJywgJy1waHQnLCAnMS4wJywgJy1waCcsICc3LjQnLCAnLXRuJywgJzgnLCAnLW1hJywgJzUwMCcsICctaW1hZScsICc8aW5maWxlLm1hZT4nLCAnLW9tYWUnLCAnPG91dGZpbGUubWFlPic=

>  <s_epik_input>  (1) 
W0NIM11bQ0BASF0xTj1bQ0hdW0NAQEhdKFtDSDNdKVtDQEhdMVtDQEhdMltDSDJdTjJbQ0gyXVtDSDJdW0NIMl1PYyhbY0hdYzNGKVtjSF1bY0hdYzNG

>  <s_glide_docking_method>  (1) 
confgen

>  <s_i_glide_gridfile>  (1) 
gpcr_drd2_6luq_protein_autoprepared_prepared

>  <s_lp_Force_Field>  (1) 
S-OPLS

>  <s_lp_Variant>  (1) 
DiffSBDD_83-4

>  <s_m_source_file>  (1) 
generated_generic_title2_ligand_DiffSBDD_2026-06-23_prepared.sdf

>  <GenAI_Model>  (1) 
DiffSBDD

>  <Protein>  (1) 
generic_title2

$$$$
DiffSBDD_64
     RDKit          3D

  0  0  0  0  0  0  0  0  0  0999 V3000
M  V30 BEGIN CTAB
M  V30 COUNTS 77 80 0 0 1
M  V30 BEGIN ATOM
M  V30 1 C 6.095246 5.712488 -17.110434 0
M  V30 2 C 10.595815 8.386324 -9.110507 0
M  V30 3 C 8.208489 5.734552 -18.493863 0 CFG=2
M  V30 4 C 6.441054 5.870320 -12.018418 0
M  V30 5 C 10.757851 7.079128 -5.518279 0
M  V30 6 C 7.642287 3.359757 -19.412575 0
M  V30 7 C 6.596446 6.974268 -13.073673 0 CFG=1
M  V30 8 O 12.580040 8.194373 -7.853178 0
M  V30 9 C 6.488832 5.503379 -20.204771 0
M  V30 10 C 9.080211 5.088398 -17.396491 0
M  V30 11 C 7.795657 5.409012 -11.455906 0
M  V30 12 C 11.117418 8.553997 -5.327580 0
M  V30 13 C 10.828009 9.200789 -6.671807 0
M  V30 14 C 4.953571 7.430276 -19.357973 0
M  V30 15 N 6.975287 6.453490 -18.065462 0 CFG=1 CHG=1
M  V30 16 C 5.345748 7.918511 -15.989068 0
M  V30 17 C 11.178265 8.139322 -7.706099 0 CFG=1
M  V30 18 C 7.800565 4.862285 -19.706469 0 CFG=1
M  V30 19 C 6.353064 6.785977 -19.377265 0 CFG=1
M  V30 20 C 7.503450 8.087429 -12.532241 0
M  V30 21 C 8.808438 7.572478 -11.939878 0
M  V30 22 C 10.908388 7.212754 -10.055092 0
M  V30 23 C 9.483408 5.402360 -8.805235 0
M  V30 24 C 9.404716 6.252389 -7.525091 0
M  V30 25 C 10.768805 6.800804 -7.038288 0 CFG=2
M  V30 26 S 7.237012 6.344643 -14.659041 0
M  V30 27 N 8.575407 6.550295 -10.885893 0 CFG=2 CHG=1
M  V30 28 C 9.793412 6.122707 -10.149859 0 CFG=1
M  V30 29 C 5.813005 6.465379 -15.786128 0 CFG=2
M  V30 30 H 6.537217 4.752051 -16.862704 0
M  V30 31 H 5.152298 5.452450 -17.585082 0
M  V30 32 H 9.522129 8.574824 -9.068678 0
M  V30 33 H 11.028921 9.299464 -9.519117 0
M  V30 34 H 8.844687 6.524024 -18.899337 0
M  V30 35 H 5.895978 5.022475 -12.436367 0
M  V30 36 H 5.829780 6.246507 -11.195741 0
M  V30 37 H 11.459438 6.433415 -4.988784 0
M  V30 38 H 9.775413 6.882622 -5.094449 0
M  V30 39 H 6.906871 3.172927 -18.629730 0
M  V30 40 H 7.316689 2.823617 -20.304482 0
M  V30 41 H 8.586821 2.915415 -19.097593 0
M  V30 42 H 5.605914 7.390224 -13.247483 0
M  V30 43 H 12.815567 9.024454 -8.239030 0
M  V30 44 H 5.639770 4.845017 -20.015279 0
M  V30 45 H 6.508862 5.708306 -21.276421 0
M  V30 46 H 10.012537 4.723013 -17.828343 0
M  V30 47 H 9.354170 5.814274 -16.630716 0
M  V30 48 H 8.611736 4.237421 -16.904709 0
M  V30 49 H 8.377350 4.926398 -12.243064 0
M  V30 50 H 7.599227 4.638104 -10.713845 0
M  V30 51 H 12.175844 8.649559 -5.098765 0
M  V30 52 H 10.575593 9.041243 -4.521425 0
M  V30 53 H 11.375785 10.136243 -6.785034 0
M  V30 54 H 9.768941 9.420323 -6.749831 0
M  V30 55 H 4.624511 7.634778 -20.376724 0
M  V30 56 H 4.182643 6.809961 -18.904086 0
M  V30 57 H 4.973759 8.389826 -18.842068 0
M  V30 58 H 4.495391 7.963390 -16.666833 0
M  V30 59 H 5.001941 8.373405 -15.063438 0
M  V30 60 H 6.138027 8.553682 -16.385188 0
M  V30 61 H 8.566530 4.970119 -20.476964 0
M  V30 62 H 7.005919 7.529799 -19.839840 0
M  V30 63 H 7.775411 8.789920 -13.321534 0
M  V30 64 H 6.970145 8.655741 -11.768063 0
M  V30 65 H 9.294993 8.458227 -11.538904 0
M  V30 66 H 9.452414 7.161672 -12.718797 0
M  V30 67 H 11.850574 6.790228 -9.730252 0
M  V30 68 H 11.179114 7.588162 -11.040514 0
M  V30 69 H 10.231643 4.629978 -8.641667 0
M  V30 70 H 8.552905 4.843139 -8.867052 0
M  V30 71 H 9.007792 5.590483 -6.757872 0
M  V30 72 H 8.660518 7.043741 -7.614438 0
M  V30 73 H 11.525404 6.039006 -7.231338 0
M  V30 74 H 10.173802 5.354209 -10.818079 0
M  V30 75 H 5.006097 5.929352 -15.285518 0
M  V30 76 H 7.961405 7.014859 -10.201380 0
M  V30 77 H 7.247861 7.308458 -17.602206 0
M  V30 END ATOM
M  V30 BEGIN BOND
M  V30 1 1 7 4
M  V30 2 1 10 3
M  V30 3 1 11 4
M  V30 4 1 12 5
M  V30 5 1 13 12
M  V30 6 1 15 1
M  V30 7 1 15 3
M  V30 8 1 17 2
M  V30 9 1 17 8 CFG=3
M  V30 10 1 17 13
M  V30 11 1 18 3
M  V30 12 1 18 6
M  V30 13 1 18 9
M  V30 14 1 19 9
M  V30 15 1 19 14
M  V30 16 1 19 15
M  V30 17 1 20 7
M  V30 18 1 21 20
M  V30 19 1 22 2
M  V30 20 1 24 23
M  V30 21 1 25 5
M  V30 22 1 25 17
M  V30 23 1 25 24
M  V30 24 1 26 7
M  V30 25 1 27 11
M  V30 26 1 27 21
M  V30 27 1 28 22
M  V30 28 1 28 23
M  V30 29 1 28 27
M  V30 30 1 29 1
M  V30 31 1 29 16
M  V30 32 1 29 26
M  V30 33 1 30 1
M  V30 34 1 31 1
M  V30 35 1 32 2
M  V30 36 1 33 2
M  V30 37 1 3 34 CFG=3
M  V30 38 1 35 4
M  V30 39 1 36 4
M  V30 40 1 37 5
M  V30 41 1 38 5
M  V30 42 1 39 6
M  V30 43 1 40 6
M  V30 44 1 41 6
M  V30 45 1 7 42 CFG=3
M  V30 46 1 43 8
M  V30 47 1 44 9
M  V30 48 1 45 9
M  V30 49 1 46 10
M  V30 50 1 47 10
M  V30 51 1 48 10
M  V30 52 1 49 11
M  V30 53 1 50 11
M  V30 54 1 51 12
M  V30 55 1 52 12
M  V30 56 1 53 13
M  V30 57 1 54 13
M  V30 58 1 55 14
M  V30 59 1 56 14
M  V30 60 1 57 14
M  V30 61 1 58 16
M  V30 62 1 59 16
M  V30 63 1 60 16
M  V30 64 1 18 61 CFG=3
M  V30 65 1 19 62 CFG=3
M  V30 66 1 63 20
M  V30 67 1 64 20
M  V30 68 1 65 21
M  V30 69 1 66 21
M  V30 70 1 67 22
M  V30 71 1 68 22
M  V30 72 1 69 23
M  V30 73 1 70 23
M  V30 74 1 71 24
M  V30 75 1 72 24
M  V30 76 1 25 73 CFG=1
M  V30 77 1 28 74 CFG=3
M  V30 78 1 29 75 CFG=1
M  V30 79 1 27 76 CFG=1
M  V30 80 1 15 77 CFG=1
M  V30 END BOND
M  V30 END CTAB
M  END
>  <i_epik_Tot_Q>  (1) 
2

>  <i_epik_Tot_abs_Q>  (1) 
2

>  <i_i_glide_confnum>  (1) 
65

>  <i_i_glide_lignum>  (1) 
102

>  <i_i_glide_posenum>  (1) 
342

>  <i_i_glide_rotatable_bonds>  (1) 
6

>  <i_lp_mmshare_version>  (1) 
72125

>  <i_m_source_file_index>  (1) 
65

>  <i_f3d_flags>  (1) 
0

>  <num_sample>  (1) 
100

>  <b_lp_Chiralities_Consistent>  (1) 
1

>  <r_epik_Charging_Adjusted_Penalty>  (1) 
0.010385271147369776

>  <r_epik_Ionization_Penalty>  (1) 
0.010385491156522124

>  <r_epik_Ionization_Penalty_Charging>  (1) 
0.010385271147369776

>  <r_epik_Ionization_Penalty_Neutral>  (1) 
2.2000915234807092e-07

>  <r_epik_State_Penalty>  (1) 
-0

>  <r_glide_ring_energy>  (1) 
0

>  <r_i_docking_score>  (1) 
-6.2071505755445733

>  <r_i_glide_ecoul>  (1) 
-6.774852188506066

>  <r_i_glide_eff_state_penalty>  (1) 
-0

>  <r_i_glide_einternal>  (1) 
2.0138126908151133

>  <r_i_glide_emodel>  (1) 
-45.483292503448013

>  <r_i_glide_emodel_strain>  (1) 
1.2253900156906354

>  <r_i_glide_energy>  (1) 
-38.167936491771471

>  <r_i_glide_erotb>  (1) 
0.5496323063178965

>  <r_i_glide_esite>  (1) 
-0.10000000000000001

>  <r_i_glide_evdw>  (1) 
-31.393084303265407

>  <r_i_glide_gscore>  (1) 
-6.2071505755445733

>  <r_i_glide_gscore_strain>  (1) 
0

>  <r_i_glide_hbond>  (1) 
-0.20000000000000001

>  <r_i_glide_ligand_efficiency>  (1) 
-0.21403967501877838

>  <r_i_glide_ligand_efficiency_ln>  (1) 
-1.421280082041934

>  <r_i_glide_ligand_efficiency_sa>  (1) 
-0.65759769492452369

>  <r_i_glide_lipo>  (1) 
-2.4577515884232879

>  <r_i_glide_metal>  (1) 
-0

>  <r_i_glide_rewards>  (1) 
-1.4131492500000007

>  <r_lp_Energy>  (1) 
54.772919999999999

>  <r_lp_tautomer_probability>  (1) 
1

>  <s_epik_cmdline>  (1) 
J2VwaWtfcHl0aG9uJywgJy1waHQnLCAnMS4wJywgJy1waCcsICc3LjQnLCAnLXRuJywgJzgnLCAnLW1hJywgJzUwMCcsICctaW1hZScsICc8aW5maWxlLm1hZT4nLCAnLW9tYWUnLCAnPG91dGZpbGUubWFlPic=

>  <s_epik_input>  (1) 
W0NIM11bQ0BIXTFbQ0gyXVtDQEBIXShbQ0gzXSlOKFtDQEhdMVtDSDNdKVtDSDJdW0NASF0oW0NIM10pU1tDSF0yW0NIMl1bQ0gyXU4oW0NIMl1bQ0gyXTIpW0NAQEhdKFtDSDJdW0NIMl0zKVtDSDJdW0NIMl1bQ0BASF0oW0NAQF0zNFtPSF0pW0NIMl1bQ0gyXVtDSDJdNA==

>  <s_glide_docking_method>  (1) 
confgen

>  <s_i_glide_gridfile>  (1) 
gpcr_drd2_6luq_protein_autoprepared_prepared

>  <s_lp_Force_Field>  (1) 
S-OPLS

>  <s_lp_Variant>  (1) 
DiffSBDD_64-1

>  <s_m_source_file>  (1) 
generated_generic_title2_ligand_DiffSBDD_2026-06-23_prepared.sdf

>  <GenAI_Model>  (1) 
DiffSBDD

>  <Protein>  (1) 
generic_title2

$$$$
DiffSBDD_14
     RDKit          3D

  0  0  0  0  0  0  0  0  0  0999 V3000
M  V30 BEGIN CTAB
M  V30 COUNTS 47 48 0 0 1
M  V30 BEGIN ATOM
M  V30 1 N 9.057568 5.146231 -10.100191 0
M  V30 2 C 8.690637 5.039563 -14.881933 0
M  V30 3 N 9.600878 5.190225 -13.727454 0 CHG=1
M  V30 4 C 11.571808 9.060266 -6.588641 0
M  V30 5 C 9.340813 5.754743 -11.314897 0
M  V30 6 C 7.323581 4.642880 -14.316477 0
M  V30 7 C 9.375410 7.236689 -8.760682 0
M  V30 8 C 6.356944 4.374642 -11.986831 0
M  V30 9 C 11.888478 9.229166 -5.228535 0
M  V30 10 C 11.164552 7.798718 -7.068404 0
M  V30 11 C 11.805207 8.130217 -4.339102 0
M  V30 12 C 11.375410 6.872511 -4.823195 0
M  V30 13 C 11.058102 6.710559 -6.182015 0
M  V30 14 C 9.116982 5.737214 -8.963437 0
M  V30 15 O 9.953495 6.802077 -11.542836 0
M  V30 16 C 6.920592 6.664206 -12.866788 0
M  V30 17 C 10.844757 7.609418 -8.538804 0
M  V30 18 N 11.995556 7.323742 -1.985025 0
M  V30 19 N 12.175410 8.270981 -2.984782 0
M  V30 20 C 8.822680 4.925987 -12.500852 0 CFG=1
M  V30 21 C 7.333264 5.170355 -12.876399 0
M  V30 22 O 12.175406 9.590227 -2.518159 0
M  V30 23 H 9.066855 4.295966 -15.585046 0
M  V30 24 H 8.624984 5.990224 -15.410716 0
M  V30 25 H 9.917163 6.148055 -13.681481 0
M  V30 26 H 11.653057 9.896087 -7.265502 0
M  V30 27 H 7.243429 3.554205 -14.314678 0
M  V30 28 H 6.493885 5.022876 -14.914549 0
M  V30 29 H 8.785144 7.567425 -7.905557 0
M  V30 30 H 8.975641 7.815428 -9.590666 0
M  V30 31 H 6.590067 3.309659 -11.985022 0
M  V30 32 H 6.384690 4.719580 -10.952172 0
M  V30 33 H 5.329640 4.481176 -12.336519 0
M  V30 34 H 12.213611 10.194056 -4.873429 0
M  V30 35 H 11.306035 6.027475 -4.154453 0
M  V30 36 H 10.744454 5.745129 -6.547670 0
M  V30 37 H 8.969245 5.181442 -8.033912 0
M  V30 38 H 7.597869 7.285625 -13.453196 0
M  V30 39 H 5.919201 6.798067 -13.277987 0
M  V30 40 H 6.899089 7.069798 -11.853724 0
M  V30 41 H 11.054366 8.541066 -9.065824 0
M  V30 42 H 11.514990 6.866366 -8.971767 0
M  V30 43 H 11.201306 7.601695 -1.411255 0
M  V30 44 H 11.787405 6.421131 -2.407622 0
M  V30 45 H 8.968182 3.867168 -12.273938 0
M  V30 46 H 13.061193 9.780971 -2.232367 0
M  V30 47 H 10.409525 4.577578 -13.776053 0
M  V30 END ATOM
M  V30 BEGIN BOND
M  V30 1 1 3 2
M  V30 2 1 5 1
M  V30 3 1 6 2
M  V30 4 2 9 4
M  V30 5 1 10 4
M  V30 6 1 11 9
M  V30 7 2 12 11
M  V30 8 2 13 10
M  V30 9 1 13 12
M  V30 10 2 14 1
M  V30 11 1 14 7
M  V30 12 2 15 5
M  V30 13 1 17 7
M  V30 14 1 17 10
M  V30 15 1 19 11
M  V30 16 1 19 18
M  V30 17 1 20 3
M  V30 18 1 20 5
M  V30 19 1 21 6
M  V30 20 1 21 8
M  V30 21 1 21 16
M  V30 22 1 21 20
M  V30 23 1 22 19
M  V30 24 1 23 2
M  V30 25 1 24 2
M  V30 26 1 25 3
M  V30 27 1 26 4
M  V30 28 1 27 6
M  V30 29 1 28 6
M  V30 30 1 29 7
M  V30 31 1 30 7
M  V30 32 1 31 8
M  V30 33 1 32 8
M  V30 34 1 33 8
M  V30 35 1 34 9
M  V30 36 1 35 12
M  V30 37 1 36 13
M  V30 38 1 37 14
M  V30 39 1 38 16
M  V30 40 1 39 16
M  V30 41 1 40 16
M  V30 42 1 41 17
M  V30 43 1 42 17
M  V30 44 1 43 18
M  V30 45 1 44 18
M  V30 46 1 20 45 CFG=1
M  V30 47 1 46 22
M  V30 48 1 47 3
M  V30 END BOND
M  V30 END CTAB
M  END
>  <i_epik_Tot_Q>  (1) 
1

>  <i_epik_Tot_abs_Q>  (1) 
1

>  <i_i_glide_confnum>  (1) 
151

>  <i_i_glide_lignum>  (1) 
29

>  <i_i_glide_posenum>  (1) 
285

>  <i_i_glide_rotatable_bonds>  (1) 
7

>  <i_lp_mmshare_version>  (1) 
72125

>  <i_m_source_file_index>  (1) 
15

>  <i_f3d_flags>  (1) 
0

>  <num_sample>  (1) 
100

>  <b_lp_Chiralities_Consistent>  (1) 
1

>  <r_epik_Charging_Adjusted_Penalty>  (1) 
1.3617227199011863

>  <r_epik_Ionization_Penalty>  (1) 
0.68407859148239814

>  <r_epik_Ionization_Penalty_Charging>  (1) 
0.68086135995059327

>  <r_epik_Ionization_Penalty_Neutral>  (1) 
0.0032172315318048095

>  <r_epik_State_Penalty>  (1) 
0.68086135995059305

>  <r_glide_ring_energy>  (1) 
0

>  <r_i_docking_score>  (1) 
-6.2030783697533876

>  <r_i_glide_ecoul>  (1) 
-8.6966134683942133

>  <r_i_glide_eff_state_penalty>  (1) 
0.68086135995059305

>  <r_i_glide_einternal>  (1) 
4.4093986864370054

>  <r_i_glide_emodel>  (1) 
-64.755084606455725

>  <r_i_glide_emodel_strain>  (1) 
0.10961163490793169

>  <r_i_glide_energy>  (1) 
-42.726024660463629

>  <r_i_glide_erotb>  (1) 
1.1872890279772172

>  <r_i_glide_esite>  (1) 
-0.083453525238670598

>  <r_i_glide_evdw>  (1) 
-34.029411192069418

>  <r_i_glide_gscore>  (1) 
-6.8839397297039806

>  <r_i_glide_gscore_strain>  (1) 
0

>  <r_i_glide_hbond>  (1) 
-0.2732119210511057

>  <r_i_glide_ligand_efficiency>  (1) 
-0.28195810771606306

>  <r_i_glide_ligand_efficiency_ln>  (1) 
-1.5162586163488261

>  <r_i_glide_ligand_efficiency_sa>  (1) 
-0.79005770741757697

>  <r_i_glide_lipo>  (1) 
-2.0216973743443543

>  <r_i_glide_metal>  (1) 
-0

>  <r_i_glide_rewards>  (1) 
-2.6869033571844647

>  <r_lp_Energy>  (1) 
33.931866999999997

>  <s_epik_Chemistry_Notes>  (1) 
This compound has an imine and may undergo hydrolysis. This compound has a N-S or N-O group and may undergo hydrolysis at high or low pH.

>  <s_epik_cmdline>  (1) 
J2VwaWtfcHl0aG9uJywgJy1waHQnLCAnMS4wJywgJy1waCcsICc3LjQnLCAnLXRuJywgJzgnLCAnLW1hJywgJzUwMCcsICctaW1hZScsICc8aW5maWxlLm1hZT4nLCAnLW9tYWUnLCAnPG91dGZpbGUubWFlPic=

>  <s_epik_input>  (1) 
W0NIM11DMShbQ0gzXSlbQ0gyXVtDSDJdW05IXVtDQEhdMUMoPU8pL049W0NIXVxbQ0gyXVtDSDJdYzJbY0hdW2NIXWMoW2NIXVtjSF0yKU4oW05IMl0pW09IXQ==

>  <s_glide_docking_method>  (1) 
confgen

>  <s_i_glide_gridfile>  (1) 
gpcr_drd2_6luq_protein_autoprepared_prepared

>  <s_lp_Force_Field>  (1) 
S-OPLS

>  <s_lp_Variant>  (1) 
DiffSBDD_14-4

>  <s_m_source_file>  (1) 
generated_generic_title2_ligand_DiffSBDD_2026-06-23_prepared.sdf

>  <GenAI_Model>  (1) 
DiffSBDD

>  <Protein>  (1) 
generic_title2

$$$$
DiffSBDD_79
     RDKit          3D

  0  0  0  0  0  0  0  0  0  0999 V3000
M  V30 BEGIN CTAB
M  V30 COUNTS 53 56 0 0 1
M  V30 BEGIN ATOM
M  V30 1 C 12.366453 8.483496 -3.958094 0
M  V30 2 C 7.272015 5.512785 -11.228029 0 CFG=2
M  V30 3 C 12.240327 7.837642 -1.594248 0
M  V30 4 C 10.723183 7.760245 -8.769705 0
M  V30 5 C 8.578053 6.276718 -11.281971 0
M  V30 6 C 11.861705 7.028949 -3.850748 0
M  V30 7 C 12.274637 6.571310 -2.448952 0
M  V30 8 N 9.304076 6.420010 -10.236009 0
M  V30 9 C 12.175336 8.997363 -7.240411 0
M  V30 10 C 10.448306 7.192775 -10.144606 0
M  V30 11 C 5.234875 4.791115 -12.647904 0
M  V30 12 C 7.282598 4.032095 -11.248499 0
M  V30 13 C 10.042428 8.125419 -6.447850 0
M  V30 14 C 7.869144 6.507257 -13.750144 0
M  V30 15 C 11.236946 8.831671 -6.206829 0
M  V30 16 C 9.784083 7.588238 -7.721053 0
M  V30 17 C 7.521439 5.011037 -13.717506 0 CFG=1
M  V30 18 C 11.514261 9.413355 -4.834331 0
M  V30 19 C 8.933638 6.843137 -12.669095 0
M  V30 20 C 6.726399 4.773196 -12.438555 0 CFG=2
M  V30 21 C 12.579214 8.984330 -2.528792 0
M  V30 22 C 11.920387 8.469126 -8.521603 0
M  V30 23 O 11.227839 7.435593 -11.067108 0
M  V30 24 C 6.855328 4.516485 -15.014533 0
M  V30 25 H 13.362978 8.469133 -4.384988 0
M  V30 26 H 6.561088 5.989143 -10.558769 0
M  V30 27 H 12.975412 7.808767 -0.786116 0
M  V30 28 H 11.241560 7.988820 -1.185157 0
M  V30 29 H 10.786274 6.954263 -3.984960 0
M  V30 30 H 12.248651 6.390430 -4.639206 0
M  V30 31 H 13.291728 6.180754 -2.458124 0
M  V30 32 H 11.627677 5.785983 -2.057260 0
M  V30 33 H 13.092535 9.533734 -7.051711 0
M  V30 34 H 4.975407 5.703659 -13.181814 0
M  V30 35 H 4.902737 3.922439 -13.215513 0
M  V30 36 H 4.724254 4.788663 -11.685548 0
M  V30 37 H 6.575719 3.590322 -10.550797 0
M  V30 38 H 8.273423 3.590224 -11.315857 0
M  V30 39 H 9.322852 7.993684 -5.655404 0
M  V30 40 H 6.969822 7.098865 -13.569212 0
M  V30 41 H 8.175403 6.790207 -14.753287 0
M  V30 42 H 8.862529 7.050370 -7.894295 0
M  V30 43 H 8.454936 4.451982 -13.633002 0
M  V30 44 H 12.021227 10.371153 -4.956163 0
M  V30 45 H 10.575699 9.645506 -4.339571 0
M  V30 46 H 9.066505 7.924084 -12.603114 0
M  V30 47 H 9.882498 6.400876 -12.978751 0
M  V30 48 H 13.638670 9.190149 -2.388468 0
M  V30 49 H 12.020448 9.891333 -2.289221 0
M  V30 50 H 12.644802 8.606486 -9.312016 0
M  V30 51 H 5.959535 5.088409 -15.258240 0
M  V30 52 H 7.536496 4.609695 -15.859937 0
M  V30 53 H 6.578531 3.463902 -14.937794 0
M  V30 END ATOM
M  V30 BEGIN BOND
M  V30 1 1 5 2
M  V30 2 1 6 1
M  V30 3 1 7 3
M  V30 4 1 7 6
M  V30 5 2 8 5
M  V30 6 1 10 4
M  V30 7 1 10 8
M  V30 8 1 12 2
M  V30 9 1 15 9
M  V30 10 2 15 13
M  V30 11 2 16 4
M  V30 12 1 16 13
M  V30 13 1 17 14
M  V30 14 1 18 1
M  V30 15 1 18 15
M  V30 16 1 19 5
M  V30 17 1 19 14
M  V30 18 1 20 2
M  V30 19 1 20 11 CFG=3
M  V30 20 1 20 12
M  V30 21 1 20 17
M  V30 22 1 21 1
M  V30 23 1 21 3
M  V30 24 1 22 4
M  V30 25 2 22 9
M  V30 26 2 23 10
M  V30 27 1 24 17
M  V30 28 1 25 1
M  V30 29 1 2 26 CFG=1
M  V30 30 1 27 3
M  V30 31 1 28 3
M  V30 32 1 29 6
M  V30 33 1 30 6
M  V30 34 1 31 7
M  V30 35 1 32 7
M  V30 36 1 33 9
M  V30 37 1 34 11
M  V30 38 1 35 11
M  V30 39 1 36 11
M  V30 40 1 37 12
M  V30 41 1 38 12
M  V30 42 1 39 13
M  V30 43 1 40 14
M  V30 44 1 41 14
M  V30 45 1 42 16
M  V30 46 1 17 43 CFG=1
M  V30 47 1 44 18
M  V30 48 1 45 18
M  V30 49 1 46 19
M  V30 50 1 47 19
M  V30 51 1 48 21
M  V30 52 1 49 21
M  V30 53 1 50 22
M  V30 54 1 51 24
M  V30 55 1 52 24
M  V30 56 1 53 24
M  V30 END BOND
M  V30 END CTAB
M  END
>  <i_epik_Tot_Q>  (1) 
0

>  <i_epik_Tot_abs_Q>  (1) 
0

>  <i_i_glide_confnum>  (1) 
22

>  <i_i_glide_lignum>  (1) 
137

>  <i_i_glide_posenum>  (1) 
214

>  <i_i_glide_rotatable_bonds>  (1) 
4

>  <i_lp_mmshare_version>  (1) 
72125

>  <i_m_source_file_index>  (1) 
80

>  <i_f3d_flags>  (1) 
0

>  <num_sample>  (1) 
100

>  <b_lp_Chiralities_Consistent>  (1) 
1

>  <r_epik_Charging_Adjusted_Penalty>  (1) 
0

>  <r_epik_Ionization_Penalty>  (1) 
0

>  <r_epik_Ionization_Penalty_Charging>  (1) 
0

>  <r_epik_Ionization_Penalty_Neutral>  (1) 
0

>  <r_epik_State_Penalty>  (1) 
-0

>  <r_glide_ring_energy>  (1) 
0.22242768926462378

>  <r_i_docking_score>  (1) 
-6.1993147867469736

>  <r_i_glide_ecoul>  (1) 
-0.69888034579426739

>  <r_i_glide_eff_state_penalty>  (1) 
-0

>  <r_i_glide_einternal>  (1) 
0.7078078560788077

>  <r_i_glide_emodel>  (1) 
-38.729746191914927

>  <r_i_glide_emodel_strain>  (1) 
0.058183966791290231

>  <r_i_glide_energy>  (1) 
-29.388990202646916

>  <r_i_glide_erotb>  (1) 
0.71538486133248902

>  <r_i_glide_esite>  (1) 
-0.1041131735693166

>  <r_i_glide_evdw>  (1) 
-28.690109856852647

>  <r_i_glide_gscore>  (1) 
-6.1993147867469736

>  <r_i_glide_gscore_strain>  (1) 
0

>  <r_i_glide_hbond>  (1) 
0

>  <r_i_glide_ligand_efficiency>  (1) 
-0.2583047827811239

>  <r_i_glide_ligand_efficiency_ln>  (1) 
-1.4837804964879304

>  <r_i_glide_ligand_efficiency_sa>  (1) 
-0.74507992394884881

>  <r_i_glide_lipo>  (1) 
-3.1677207252529174

>  <r_i_glide_metal>  (1) 
-0

>  <r_i_glide_rewards>  (1) 
-2.103528204545456

>  <r_lp_Energy>  (1) 
53.127567999999997

>  <r_lp_tautomer_probability>  (1) 
1

>  <s_epik_Chemistry_Notes>  (1) 
This compound has an imine and may undergo hydrolysis.

>  <s_epik_cmdline>  (1) 
J2VwaWtfcHl0aG9uJywgJy1waHQnLCAnMS4wJywgJy1waCcsICc3LjQnLCAnLXRuJywgJzgnLCAnLW1hJywgJzUwMCcsICctaW1hZScsICc8aW5maWxlLm1hZT4nLCAnLW9tYWUnLCAnPG91dGZpbGUubWFlPic=

>  <s_epik_input>  (1) 
W0NIMl0xW0NIMl1bQ0gyXVtDSDJdW0NIXTFbQ0gyXWMoW2NIXVtjSF0yKVtjSF1bY0hdYzJDKD1PKVxOPUMoXFtDQEhdKFtDSDJdMylDMzRbQ0gzXSlbQ0gyXVtDSDJdW0NAQEhdNFtDSDNd

>  <s_glide_docking_method>  (1) 
confgen

>  <s_i_glide_gridfile>  (1) 
gpcr_drd2_6luq_protein_autoprepared_prepared

>  <s_lp_Force_Field>  (1) 
S-OPLS

>  <s_lp_Variant>  (1) 
DiffSBDD_79-1

>  <s_m_source_file>  (1) 
generated_generic_title2_ligand_DiffSBDD_2026-06-23_prepared.sdf

>  <GenAI_Model>  (1) 
DiffSBDD

>  <Protein>  (1) 
generic_title2

$$$$
DiffSBDD_62
     RDKit          3D

  0  0  0  0  0  0  0  0  0  0999 V3000
M  V30 BEGIN CTAB
M  V30 COUNTS 64 66 0 0 1
M  V30 BEGIN ATOM
M  V30 1 C 9.393828 6.214098 -8.481245 0
M  V30 2 C 7.563236 3.435888 -12.925503 0 CFG=1
M  V30 3 C 7.764836 5.034578 -16.286949 0
M  V30 4 C 8.083044 3.944553 -15.263091 0 CFG=2
M  V30 5 C 11.144622 6.755545 -4.372546 0
M  V30 6 C 7.106798 5.618226 -11.589995 0
M  V30 7 C 8.437485 5.920892 -10.853245 0 CFG=1
M  V30 8 C 11.942025 7.868700 -3.629627 0 CFG=1
M  V30 9 O 11.375452 9.172688 -3.779637 0
M  V30 10 O 6.369778 6.522734 -11.985189 0
M  V30 11 C 6.737181 4.143210 -11.818504 0
M  V30 12 C 11.961561 7.609073 -2.110772 0
M  V30 13 C 9.029012 3.212287 -12.472317 0
M  V30 14 O 11.878751 5.699645 -6.385071 0
M  V30 15 C 8.975224 7.358228 -11.056118 0 CFG=1
M  V30 16 C 10.311081 7.570143 -10.368279 0
M  V30 17 N 11.022985 7.770855 -6.604677 0
M  V30 18 C 7.585197 2.560918 -15.737131 0
M  V30 19 C 11.344082 9.706504 -5.087083 0
M  V30 20 C 11.288336 7.828994 -8.035192 0
M  V30 21 C 10.387057 8.929095 -6.007078 0
M  V30 22 C 6.909701 2.095207 -13.341932 0
M  V30 23 O 7.436101 4.311501 -14.053803 0
M  V30 24 C 11.375370 6.696877 -5.879549 0
M  V30 25 O 9.275952 7.583768 -12.385024 0
M  V30 26 C 7.555729 1.514271 -14.615415 0
M  V30 27 C 8.377884 5.502390 -9.365230 0
M  V30 28 C 10.268777 7.145893 -8.929696 0
M  V30 29 O 12.975369 8.390287 -1.520715 0
M  V30 30 H 9.394966 5.930820 -7.442651 0
M  V30 31 H 8.238471 4.830874 -17.247030 0
M  V30 32 H 6.691515 5.133845 -16.451807 0
M  V30 33 H 8.133611 5.990525 -15.927857 0
M  V30 34 H 9.159094 3.990114 -15.107919 0
M  V30 35 H 11.455754 5.789939 -3.975698 0
M  V30 36 H 10.078430 6.789441 -4.215854 0
M  V30 37 H 9.213124 5.308849 -11.291034 0
M  V30 38 H 12.972721 7.877387 -3.984999 0
M  V30 39 H 6.795728 3.615443 -10.870367 0
M  V30 40 H 5.685442 4.122546 -12.101655 0
M  V30 41 H 12.194196 6.563583 -1.900174 0
M  V30 42 H 11.005654 7.828177 -1.632000 0
M  V30 43 H 9.112605 3.190339 -11.386646 0
M  V30 44 H 9.433629 2.256721 -12.785198 0
M  V30 45 H 9.701353 3.984835 -12.843516 0
M  V30 46 H 8.285707 8.151065 -10.785342 0
M  V30 47 H 10.580017 8.625100 -10.432300 0
M  V30 48 H 11.112608 7.015693 -10.857643 0
M  V30 49 H 6.575573 2.664835 -16.126994 0
M  V30 50 H 8.191924 2.204480 -16.571538 0
M  V30 51 H 10.992725 10.735085 -4.996354 0
M  V30 52 H 12.351463 9.759884 -5.504973 0
M  V30 53 H 11.371022 8.874011 -8.335549 0
M  V30 54 H 12.270937 7.414646 -8.256442 0
M  V30 55 H 9.439870 8.617081 -5.585022 0
M  V30 56 H 10.060774 9.590176 -6.789357 0
M  V30 57 H 6.963504 1.367593 -12.529884 0
M  V30 58 H 5.849336 2.258731 -13.536607 0
M  V30 59 H 9.816460 6.873874 -12.694784 0
M  V30 60 H 6.999521 0.635594 -14.944802 0
M  V30 61 H 8.565770 1.161008 -14.416696 0
M  V30 62 H 8.596572 4.438592 -9.296607 0
M  V30 63 H 7.377964 5.602336 -8.943996 0
M  V30 64 H 12.815832 9.304499 -1.715407 0
M  V30 END ATOM
M  V30 BEGIN BOND
M  V30 1 1 4 3
M  V30 2 1 7 6
M  V30 3 1 8 5
M  V30 4 1 9 8
M  V30 5 2 10 6
M  V30 6 1 2 11 CFG=1
M  V30 7 1 11 6
M  V30 8 1 12 8
M  V30 9 1 13 2
M  V30 10 1 15 7
M  V30 11 1 16 15
M  V30 12 1 18 4
M  V30 13 1 19 9
M  V30 14 1 20 17
M  V30 15 1 21 17
M  V30 16 1 21 19
M  V30 17 1 22 2
M  V30 18 1 23 2
M  V30 19 1 23 4
M  V30 20 1 24 5
M  V30 21 2 24 14
M  V30 22 1 24 17
M  V30 23 1 25 15
M  V30 24 1 26 18
M  V30 25 1 26 22
M  V30 26 1 27 1
M  V30 27 1 27 7
M  V30 28 2 28 1
M  V30 29 1 28 16
M  V30 30 1 28 20
M  V30 31 1 29 12
M  V30 32 1 30 1
M  V30 33 1 31 3
M  V30 34 1 32 3
M  V30 35 1 33 3
M  V30 36 1 4 34 CFG=1
M  V30 37 1 35 5
M  V30 38 1 36 5
M  V30 39 1 7 37 CFG=3
M  V30 40 1 8 38 CFG=3
M  V30 41 1 39 11
M  V30 42 1 40 11
M  V30 43 1 41 12
M  V30 44 1 42 12
M  V30 45 1 43 13
M  V30 46 1 44 13
M  V30 47 1 45 13
M  V30 48 1 15 46 CFG=1
M  V30 49 1 47 16
M  V30 50 1 48 16
M  V30 51 1 49 18
M  V30 52 1 50 18
M  V30 53 1 51 19
M  V30 54 1 52 19
M  V30 55 1 53 20
M  V30 56 1 54 20
M  V30 57 1 55 21
M  V30 58 1 56 21
M  V30 59 1 57 22
M  V30 60 1 58 22
M  V30 61 1 59 25
M  V30 62 1 60 26
M  V30 63 1 61 26
M  V30 64 1 62 27
M  V30 65 1 63 27
M  V30 66 1 64 29
M  V30 END BOND
M  V30 END CTAB
M  END
>  <i_epik_Tot_Q>  (1) 
0

>  <i_epik_Tot_abs_Q>  (1) 
0

>  <i_i_glide_confnum>  (1) 
466

>  <i_i_glide_lignum>  (1) 
99

>  <i_i_glide_posenum>  (1) 
98

>  <i_i_glide_rotatable_bonds>  (1) 
8

>  <i_lp_mmshare_version>  (1) 
72125

>  <i_m_source_file_index>  (1) 
63

>  <i_f3d_flags>  (1) 
0

>  <num_sample>  (1) 
100

>  <b_lp_Chiralities_Consistent>  (1) 
1

>  <r_epik_Charging_Adjusted_Penalty>  (1) 
0

>  <r_epik_Ionization_Penalty>  (1) 
1.687438170051347e-07

>  <r_epik_Ionization_Penalty_Charging>  (1) 
0

>  <r_epik_Ionization_Penalty_Neutral>  (1) 
1.687438170051347e-07

>  <r_epik_State_Penalty>  (1) 
-0

>  <r_glide_ring_energy>  (1) 
0

>  <r_i_docking_score>  (1) 
-6.1986200085785548

>  <r_i_glide_ecoul>  (1) 
-2.4859554522790122

>  <r_i_glide_eff_state_penalty>  (1) 
-0

>  <r_i_glide_einternal>  (1) 
3.6109963112652679

>  <r_i_glide_emodel>  (1) 
-37.504970348834874

>  <r_i_glide_emodel_strain>  (1) 
2.9530790598845726

>  <r_i_glide_energy>  (1) 
-33.161410463550077

>  <r_i_glide_erotb>  (1) 
0.7044771691270324

>  <r_i_glide_esite>  (1) 
-0.067072447504889179

>  <r_i_glide_evdw>  (1) 
-30.675455011271065

>  <r_i_glide_gscore>  (1) 
-6.1986200085785548

>  <r_i_glide_gscore_strain>  (1) 
0

>  <r_i_glide_hbond>  (1) 
-0.078494053341292211

>  <r_i_glide_ligand_efficiency>  (1) 
-0.21374551753719154

>  <r_i_glide_ligand_efficiency_ln>  (1) 
-1.4193267985232298

>  <r_i_glide_ligand_efficiency_sa>  (1) 
-0.65669394994444308

>  <r_i_glide_lipo>  (1) 
-2.6486470110305329

>  <r_i_glide_metal>  (1) 
-0

>  <r_i_glide_rewards>  (1) 
-2.2022175974234672

>  <r_lp_Energy>  (1) 
16.964938999999998

>  <r_lp_tautomer_probability>  (1) 
1

>  <s_epik_cmdline>  (1) 
J2VwaWtfcHl0aG9uJywgJy1waHQnLCAnMS4wJywgJy1waCcsICc3LjQnLCAnLXRuJywgJzgnLCAnLW1hJywgJzUwMCcsICctaW1hZScsICc8aW5maWxlLm1hZT4nLCAnLW9tYWUnLCAnPG91dGZpbGUubWFlPic=

>  <s_epik_input>  (1) 
W09IXVtDSDJdW0NASF0xW0NIMl1DKD1PKU4oW0NIMl1bQ0gyXU8xKVtDSDJdQyg9W0NIXVtDSDJdMilbQ0gyXVtDQEBIXShbT0hdKVtDQEBIXTJDKD1PKVtDSDJdW0NAQF0zKFtDSDNdKVtDSDJdW0NIMl1bQ0gyXVtDQEhdKE8zKVtDSDNd

>  <s_glide_docking_method>  (1) 
confgen

>  <s_i_glide_gridfile>  (1) 
gpcr_drd2_6luq_protein_autoprepared_prepared

>  <s_lp_Force_Field>  (1) 
S-OPLS

>  <s_lp_Variant>  (1) 
DiffSBDD_62-1

>  <s_m_source_file>  (1) 
generated_generic_title2_ligand_DiffSBDD_2026-06-23_prepared.sdf

>  <GenAI_Model>  (1) 
DiffSBDD

>  <Protein>  (1) 
generic_title2

$$$$
DiffSBDD_72
     RDKit          3D

  0  0  0  0  0  0  0  0  0  0999 V3000
M  V30 BEGIN CTAB
M  V30 COUNTS 47 49 0 0 1
M  V30 BEGIN ATOM
M  V30 1 C 11.873280 7.500773 -3.458244 0
M  V30 2 C 12.087975 8.194251 -7.789313 0
M  V30 3 C 9.676471 7.295273 -7.137576 0
M  V30 4 C 11.267666 8.410988 -5.476537 0
M  V30 5 C 12.078662 6.452307 -2.418530 0
M  V30 6 C 11.618482 9.554902 -4.795319 0
M  V30 7 C 7.690514 3.012123 -13.319231 0
M  V30 8 C 7.388955 4.174085 -14.265387 0
M  V30 9 C 10.825125 8.314749 -6.910564 0 CFG=1
M  V30 10 N 11.413429 7.254247 -4.687023 0
M  V30 11 C 9.423745 5.582467 -11.402531 0
M  V30 12 C 9.746422 7.526803 -9.753642 0 CFG=2
M  V30 13 C 9.584745 6.613302 -8.516432 0
M  V30 14 C 8.256883 4.881258 -12.122396 0 CFG=1
M  V30 15 C 7.884955 5.404309 -13.514096 0
M  V30 16 S 12.175431 9.190227 -3.178086 0
M  V30 17 O 8.622988 3.537888 -12.388121 0
M  V30 18 O 8.947177 7.829978 -11.981519 0 CHG=-1
M  V30 19 N 8.975929 6.958636 -10.944526 0 CFG=1 CHG=1
M  V30 20 C 11.212643 7.734526 -10.149869 0
M  V30 21 C 11.947018 8.703877 -9.230976 0
M  V30 22 H 12.865529 8.813675 -7.338764 0
M  V30 23 H 12.487505 7.191365 -7.753204 0
M  V30 24 H 9.747706 6.476197 -6.420593 0
M  V30 25 H 8.726061 7.783772 -6.909359 0
M  V30 26 H 12.575268 5.590074 -2.846582 0
M  V30 27 H 12.687409 6.847811 -1.600727 0
M  V30 28 H 11.116797 6.139413 -2.010012 0
M  V30 29 H 11.611399 10.573332 -5.157329 0
M  V30 30 H 8.097624 2.139430 -13.831068 0
M  V30 31 H 6.782717 2.706528 -12.796580 0
M  V30 32 H 7.915460 4.061234 -15.213688 0
M  V30 33 H 6.321176 4.232040 -14.479854 0
M  V30 34 H 10.378894 9.270391 -7.168388 0
M  V30 35 H 10.302321 5.707745 -12.036355 0
M  V30 36 H 9.704045 4.997783 -10.528597 0
M  V30 37 H 9.256763 8.486342 -9.570661 0
M  V30 38 H 8.616137 6.114398 -8.569485 0
M  V30 39 H 10.323818 5.814169 -8.549814 0
M  V30 40 H 7.369637 4.869207 -11.486238 0
M  V30 41 H 7.126307 6.186509 -13.463728 0
M  V30 42 H 8.760902 5.821040 -14.011620 0
M  V30 43 H 11.260331 8.103677 -11.168120 0
M  V30 44 H 11.744725 6.790230 -10.170720 0
M  V30 45 H 11.468378 9.684074 -9.247425 0
M  V30 46 H 12.944718 8.862221 -9.640097 0
M  V30 47 H 8.019922 6.820084 -10.539415 0
M  V30 END ATOM
M  V30 BEGIN BOND
M  V30 1 1 5 1
M  V30 2 2 6 4
M  V30 3 1 8 7
M  V30 4 1 9 2
M  V30 5 1 9 3
M  V30 6 1 9 4
M  V30 7 2 10 1
M  V30 8 1 10 4
M  V30 9 1 13 3
M  V30 10 1 13 12
M  V30 11 1 14 11
M  V30 12 1 15 8
M  V30 13 1 15 14
M  V30 14 1 16 1
M  V30 15 1 16 6
M  V30 16 1 17 7
M  V30 17 1 17 14
M  V30 18 1 19 11
M  V30 19 1 19 12
M  V30 20 1 19 18
M  V30 21 1 20 12
M  V30 22 1 21 2
M  V30 23 1 21 20
M  V30 24 1 22 2
M  V30 25 1 23 2
M  V30 26 1 24 3
M  V30 27 1 25 3
M  V30 28 1 26 5
M  V30 29 1 27 5
M  V30 30 1 28 5
M  V30 31 1 29 6
M  V30 32 1 30 7
M  V30 33 1 31 7
M  V30 34 1 32 8
M  V30 35 1 33 8
M  V30 36 1 9 34 CFG=3
M  V30 37 1 35 11
M  V30 38 1 36 11
M  V30 39 1 12 37 CFG=1
M  V30 40 1 38 13
M  V30 41 1 39 13
M  V30 42 1 14 40 CFG=1
M  V30 43 1 41 15
M  V30 44 1 42 15
M  V30 45 1 43 20
M  V30 46 1 44 20
M  V30 47 1 45 21
M  V30 48 1 46 21
M  V30 49 1 19 47 CFG=1
M  V30 END BOND
M  V30 END CTAB
M  END
>  <i_epik_Tot_Q>  (1) 
0

>  <i_epik_Tot_abs_Q>  (1) 
2

>  <i_i_glide_confnum>  (1) 
17

>  <i_i_glide_lignum>  (1) 
118

>  <i_i_glide_posenum>  (1) 
183

>  <i_i_glide_rotatable_bonds>  (1) 
4

>  <i_lp_mmshare_version>  (1) 
72125

>  <i_m_source_file_index>  (1) 
73

>  <i_f3d_flags>  (1) 
0

>  <num_sample>  (1) 
100

>  <b_lp_Chiralities_Consistent>  (1) 
1

>  <r_epik_Charging_Adjusted_Penalty>  (1) 
0.52782075658533367

>  <r_epik_Ionization_Penalty>  (1) 
0.0061787587503483845

>  <r_epik_Ionization_Penalty_Charging>  (1) 
0.0058496280333447418

>  <r_epik_Ionization_Penalty_Neutral>  (1) 
0.00032913071700364294

>  <r_epik_State_Penalty>  (1) 
0.52197112855198891

>  <r_glide_ring_energy>  (1) 
0

>  <r_i_docking_score>  (1) 
-6.1975086107711368

>  <r_i_glide_ecoul>  (1) 
-2.4674639910128411

>  <r_i_glide_eff_state_penalty>  (1) 
0.52197112855198891

>  <r_i_glide_einternal>  (1) 
4.9398922191430863

>  <r_i_glide_emodel>  (1) 
-46.143445694647916

>  <r_i_glide_emodel_strain>  (1) 
0.67585994515448533

>  <r_i_glide_energy>  (1) 
-35.859798219681736

>  <r_i_glide_erotb>  (1) 
0.76903323708162985

>  <r_i_glide_esite>  (1) 
-0.097531402296557962

>  <r_i_glide_evdw>  (1) 
-33.392334228668894

>  <r_i_glide_gscore>  (1) 
-6.719479739323126

>  <r_i_glide_gscore_strain>  (1) 
0

>  <r_i_glide_hbond>  (1) 
-0.10835028164454943

>  <r_i_glide_ligand_efficiency>  (1) 
-0.29511945765576841

>  <r_i_glide_ligand_efficiency_ln>  (1) 
-1.5323214807678469

>  <r_i_glide_ligand_efficiency_sa>  (1) 
-0.81421220664698402

>  <r_i_glide_lipo>  (1) 
-3.050589209651005

>  <r_i_glide_metal>  (1) 
-0

>  <r_i_glide_rewards>  (1) 
-2.192305772727273

>  <r_lp_Energy>  (1) 
15.897221

>  <s_epik_cmdline>  (1) 
J2VwaWtfcHl0aG9uJywgJy1waHQnLCAnMS4wJywgJy1waCcsICc3LjQnLCAnLXRuJywgJzgnLCAnLW1hJywgJzUwMCcsICctaW1hZScsICc8aW5maWxlLm1hZT4nLCAnLW9tYWUnLCAnPG91dGZpbGUubWFlPic=

>  <s_epik_input>  (1) 
W0NIM11jMW5jKFtjSF1zMSlbQ0BIXTJbQ0gyXVtDSDJdW0NIMl1bQ0BIXShbQ0gyXVtDSDJdMilOKFtPSF0pW0NIMl1bQ0BIXTNbQ0gyXVtDSDJdW0NIMl1PMw==

>  <s_glide_docking_method>  (1) 
confgen

>  <s_i_glide_gridfile>  (1) 
gpcr_drd2_6luq_protein_autoprepared_prepared

>  <s_lp_Force_Field>  (1) 
S-OPLS

>  <s_lp_Variant>  (1) 
DiffSBDD_72-2

>  <s_m_source_file>  (1) 
generated_generic_title2_ligand_DiffSBDD_2026-06-23_prepared.sdf

>  <GenAI_Model>  (1) 
DiffSBDD

>  <Protein>  (1) 
generic_title2

$$$$
DiffSBDD_36
     RDKit          3D

  0  0  0  0  0  0  0  0  0  0999 V3000
M  V30 BEGIN CTAB
M  V30 COUNTS 49 51 0 0 1
M  V30 BEGIN ATOM
M  V30 1 C 8.259047 6.379496 -13.276981 0
M  V30 2 C 10.436859 7.500545 -5.985801 0
M  V30 3 N 9.038717 6.324597 -10.385667 0
M  V30 4 O 10.184839 8.790286 -9.585054 0 CHG=-1
M  V30 5 C 11.236167 9.499220 -5.519146 0
M  V30 6 O 5.375628 4.839406 -11.984568 0
M  V30 7 C 6.407702 5.788428 -11.766453 0 CFG=2
M  V30 8 C 11.779520 8.682930 -4.629907 0
M  V30 9 C 10.407584 8.776965 -6.344293 0
M  V30 10 C 9.915580 6.481555 -9.227876 0 CFG=2
M  V30 11 C 12.706687 8.305291 -2.449631 0
M  V30 12 C 6.104869 7.090193 -12.527062 0
M  V30 13 C 11.375424 6.511712 -3.479505 0
M  V30 14 C 9.671041 6.366784 -6.630543 0
M  V30 15 O 9.375433 4.140096 -10.832977 0
M  V30 16 C 9.011550 6.631392 -7.982938 0
M  V30 17 C 6.971763 7.020588 -13.779497 0
M  V30 18 C 7.741923 3.942984 -13.018153 0
M  V30 19 C 10.794505 7.711693 -9.478779 0
M  V30 20 C 8.818623 5.204090 -11.088346 0
M  V30 21 C 12.010157 7.015753 -2.395940 0
M  V30 22 O 12.035561 7.590201 -9.568486 0
M  V30 23 C 11.430673 7.177033 -4.834595 0 CFG=1
M  V30 24 C 7.812069 5.300001 -12.262701 0 CFG=1
M  V30 25 C 12.575388 9.111136 -3.517934 0
M  V30 26 H 8.845458 5.966410 -14.097709 0
M  V30 27 H 8.874292 7.151743 -12.810865 0
M  V30 28 H 8.466060 7.141608 -10.572077 0
M  V30 29 H 11.347130 10.573361 -5.532970 0
M  V30 30 H 5.549836 4.089622 -11.435456 0
M  V30 31 H 6.394809 5.989919 -10.694512 0
M  V30 32 H 9.803089 9.189806 -7.134206 0
M  V30 33 H 10.556160 5.608870 -9.106731 0
M  V30 34 H 13.286960 8.636781 -1.600412 0
M  V30 35 H 5.046937 7.234115 -12.747618 0
M  V30 36 H 6.426441 7.943047 -11.925729 0
M  V30 37 H 10.851081 5.590242 -3.414970 0
M  V30 38 H 8.923394 6.020535 -5.917812 0
M  V30 39 H 10.383138 5.560571 -6.762078 0
M  V30 40 H 8.575437 7.622657 -7.969543 0
M  V30 41 H 8.175197 5.936642 -8.073213 0
M  V30 42 H 6.501697 6.373908 -14.521145 0
M  V30 43 H 7.145539 7.989619 -14.244976 0
M  V30 44 H 7.082093 4.004242 -13.884178 0
M  V30 45 H 8.724062 3.640855 -13.383885 0
M  V30 46 H 7.375049 3.136268 -12.384273 0
M  V30 47 H 11.978715 6.468039 -1.470042 0
M  V30 48 H 12.175401 6.606151 -5.365856 0
M  V30 49 H 13.040998 10.074051 -3.523487 0
M  V30 END ATOM
M  V30 BEGIN BOND
M  V30 1 1 7 6
M  V30 2 2 8 5
M  V30 3 2 9 2
M  V30 4 1 9 5
M  V30 5 1 10 3
M  V30 6 1 12 7
M  V30 7 1 14 2
M  V30 8 1 16 10
M  V30 9 1 16 14
M  V30 10 1 17 1
M  V30 11 1 17 12
M  V30 12 1 19 4
M  V30 13 1 19 10
M  V30 14 1 20 3
M  V30 15 2 20 15
M  V30 16 1 21 11
M  V30 17 2 21 13
M  V30 18 2 22 19
M  V30 19 1 23 2
M  V30 20 1 23 8
M  V30 21 1 23 13
M  V30 22 1 24 1
M  V30 23 1 24 7
M  V30 24 1 24 18 CFG=3
M  V30 25 1 24 20
M  V30 26 1 25 8
M  V30 27 2 25 11
M  V30 28 1 26 1
M  V30 29 1 27 1
M  V30 30 1 28 3
M  V30 31 1 29 5
M  V30 32 1 30 6
M  V30 33 1 7 31 CFG=1
M  V30 34 1 32 9
M  V30 35 1 10 33 CFG=1
M  V30 36 1 34 11
M  V30 37 1 35 12
M  V30 38 1 36 12
M  V30 39 1 37 13
M  V30 40 1 38 14
M  V30 41 1 39 14
M  V30 42 1 40 16
M  V30 43 1 41 16
M  V30 44 1 42 17
M  V30 45 1 43 17
M  V30 46 1 44 18
M  V30 47 1 45 18
M  V30 48 1 46 18
M  V30 49 1 47 21
M  V30 50 1 23 48 CFG=3
M  V30 51 1 49 25
M  V30 END BOND
M  V30 END CTAB
M  END
>  <i_epik_Tot_Q>  (1) 
-1

>  <i_epik_Tot_abs_Q>  (1) 
1

>  <i_i_glide_confnum>  (1) 
447

>  <i_i_glide_lignum>  (1) 
62

>  <i_i_glide_posenum>  (1) 
85

>  <i_i_glide_rotatable_bonds>  (1) 
8

>  <i_lp_mmshare_version>  (1) 
72125

>  <i_m_source_file_index>  (1) 
37

>  <i_f3d_flags>  (1) 
0

>  <num_sample>  (1) 
100

>  <b_lp_Chiralities_Consistent>  (1) 
1

>  <r_epik_Charging_Adjusted_Penalty>  (1) 
6.3624129575878713e-05

>  <r_epik_Ionization_Penalty>  (1) 
6.3751974232529901e-05

>  <r_epik_Ionization_Penalty_Charging>  (1) 
6.3624129575878713e-05

>  <r_epik_Ionization_Penalty_Neutral>  (1) 
1.2784465665118319e-07

>  <r_epik_State_Penalty>  (1) 
-0

>  <r_glide_ring_energy>  (1) 
1.8447939573849956

>  <r_i_docking_score>  (1) 
-6.1882537532573778

>  <r_i_glide_ecoul>  (1) 
-3.2612723247610935

>  <r_i_glide_eff_state_penalty>  (1) 
-0

>  <r_i_glide_einternal>  (1) 
7.1466458531017949

>  <r_i_glide_emodel>  (1) 
-44.213798082586706

>  <r_i_glide_emodel_strain>  (1) 
0.29188882759956414

>  <r_i_glide_energy>  (1) 
-37.486750526159241

>  <r_i_glide_erotb>  (1) 
0.80862173255752579

>  <r_i_glide_esite>  (1) 
-0.096311351374597676

>  <r_i_glide_evdw>  (1) 
-34.225478201398147

>  <r_i_glide_gscore>  (1) 
-6.1882537532573778

>  <r_i_glide_gscore_strain>  (1) 
0

>  <r_i_glide_hbond>  (1) 
-0.082610234829726154

>  <r_i_glide_ligand_efficiency>  (1) 
-0.24753015013029511

>  <r_i_glide_ligand_efficiency_ln>  (1) 
-1.4668015865223292

>  <r_i_glide_ligand_efficiency_sa>  (1) 
-0.72378254972347678

>  <r_i_glide_lipo>  (1) 
-2.7005212028698722

>  <r_i_glide_metal>  (1) 
-0

>  <r_i_glide_rewards>  (1) 
-1.9169679379566362

>  <r_lp_Energy>  (1) 
46.703179999999996

>  <r_lp_tautomer_probability>  (1) 
1

>  <s_epik_cmdline>  (1) 
J2VwaWtfcHl0aG9uJywgJy1waHQnLCAnMS4wJywgJy1waCcsICc3LjQnLCAnLXRuJywgJzgnLCAnLW1hJywgJzUwMCcsICctaW1hZScsICc8aW5maWxlLm1hZT4nLCAnLW9tYWUnLCAnPG91dGZpbGUubWFlPic=

>  <s_epik_input>  (1) 
W09IXVtDQEBIXTFbQ0gyXVtDSDJdW0NIMl1bQ0BAXTEoW0NIM10pQyg9TylbTkhdW0NAQEhdKEMoPU8pW09IXSlbQ0gyXVtDSDJdQyg9W0NIXVtDSF09MilbQ0BIXShDMjMpW0NIXT1bQ0hdW0NIXT1bQ0hdMw==

>  <s_glide_docking_method>  (1) 
confgen

>  <s_i_glide_gridfile>  (1) 
gpcr_drd2_6luq_protein_autoprepared_prepared

>  <s_lp_Force_Field>  (1) 
S-OPLS

>  <s_lp_Variant>  (1) 
DiffSBDD_36-2

>  <s_m_source_file>  (1) 
generated_generic_title2_ligand_DiffSBDD_2026-06-23_prepared.sdf

>  <GenAI_Model>  (1) 
DiffSBDD

>  <Protein>  (1) 
generic_title2

$$$$
DiffSBDD_0
     RDKit          3D

  0  0  0  0  0  0  0  0  0  0999 V3000
M  V30 BEGIN CTAB
M  V30 COUNTS 39 41 0 0 1
M  V30 BEGIN ATOM
M  V30 1 N 10.709288 8.880523 -6.538160 0
M  V30 2 C 11.867485 7.108446 -2.335084 0
M  V30 3 C 10.284637 6.487961 -6.249305 0
M  V30 4 C 9.374718 7.766801 -8.236599 0
M  V30 5 O 6.917102 4.986321 -13.066071 0
M  V30 6 C 12.454406 9.369537 -3.378846 0
M  V30 7 N 12.276966 7.896287 -3.492906 0
M  V30 8 C 9.457140 5.228990 -9.429130 0
M  V30 9 C 11.956140 10.026765 -4.779537 0
M  V30 10 C 11.549275 7.696386 -4.634364 0
M  V30 11 C 11.375845 8.804174 -5.367211 0
M  V30 12 C 11.003528 6.485325 -5.044871 0
M  V30 13 C 10.164205 7.707354 -6.958665 0
M  V30 14 C 8.948696 4.849500 -10.818149 0
M  V30 15 C 7.869742 6.005951 -12.848249 0
M  V30 16 S 10.175402 6.890688 -9.598969 0 CHG=1
M  V30 17 C 9.137492 7.300689 -11.034932 0
M  V30 18 C 8.231729 6.095132 -11.355580 0 CFG=2
M  V30 19 H 10.857929 6.706662 -2.405394 0
M  V30 20 H 12.552294 6.270890 -2.197639 0
M  V30 21 H 11.913549 7.725989 -1.439248 0
M  V30 22 H 9.826535 5.590256 -6.619980 0
M  V30 23 H 9.144302 8.795524 -8.513642 0
M  V30 24 H 8.460889 7.254348 -7.985021 0
M  V30 25 H 7.309209 4.151896 -12.857324 0
M  V30 26 H 11.864725 9.753352 -2.545135 0
M  V30 27 H 13.500041 9.596420 -3.185001 0
M  V30 28 H 10.175341 4.516438 -9.024658 0
M  V30 29 H 8.607180 5.245612 -8.747231 0
M  V30 30 H 12.761081 10.388704 -5.417666 0
M  V30 31 H 11.190993 10.790317 -4.645720 0
M  V30 32 H 11.124762 5.590186 -4.463186 0
M  V30 33 H 8.280970 3.990243 -10.779704 0
M  V30 34 H 9.786363 4.582964 -11.463470 0
M  V30 35 H 8.753172 5.812576 -13.457950 0
M  V30 36 H 7.444038 6.949886 -13.190302 0
M  V30 37 H 9.814158 7.482152 -11.870566 0
M  V30 38 H 8.575520 8.221964 -10.880062 0
M  V30 39 H 7.308102 6.205095 -10.786681 0
M  V30 END ATOM
M  V30 BEGIN BOND
M  V30 1 1 7 2
M  V30 2 1 7 6
M  V30 3 1 9 6
M  V30 4 1 10 7
M  V30 5 1 11 1
M  V30 6 1 11 9
M  V30 7 2 11 10
M  V30 8 2 12 3
M  V30 9 1 12 10
M  V30 10 2 13 1
M  V30 11 1 13 3
M  V30 12 1 13 4
M  V30 13 1 14 8
M  V30 14 1 15 5
M  V30 15 1 16 4 CFG=1
M  V30 16 1 16 8
M  V30 17 1 17 16
M  V30 18 1 18 14
M  V30 19 1 18 15
M  V30 20 1 18 17
M  V30 21 1 19 2
M  V30 22 1 20 2
M  V30 23 1 21 2
M  V30 24 1 22 3
M  V30 25 1 23 4
M  V30 26 1 24 4
M  V30 27 1 25 5
M  V30 28 1 26 6
M  V30 29 1 27 6
M  V30 30 1 28 8
M  V30 31 1 29 8
M  V30 32 1 30 9
M  V30 33 1 31 9
M  V30 34 1 32 12
M  V30 35 1 33 14
M  V30 36 1 34 14
M  V30 37 1 35 15
M  V30 38 1 36 15
M  V30 39 1 37 17
M  V30 40 1 38 17
M  V30 41 1 18 39 CFG=1
M  V30 END BOND
M  V30 END CTAB
M  END
>  <i_epik_Tot_Q>  (1) 
1

>  <i_epik_Tot_abs_Q>  (1) 
1

>  <i_i_glide_confnum>  (1) 
33

>  <i_i_glide_lignum>  (1) 
1

>  <i_i_glide_posenum>  (1) 
131

>  <i_i_glide_rotatable_bonds>  (1) 
4

>  <i_lp_mmshare_version>  (1) 
72125

>  <i_m_source_file_index>  (1) 
1

>  <i_f3d_flags>  (1) 
0

>  <num_sample>  (1) 
100

>  <b_lp_Chiralities_Consistent>  (1) 
1

>  <r_epik_Charging_Adjusted_Penalty>  (1) 
0

>  <r_epik_Ionization_Penalty>  (1) 
0.00029429108255977062

>  <r_epik_Ionization_Penalty_Charging>  (1) 
0

>  <r_epik_Ionization_Penalty_Neutral>  (1) 
0.00029429108255977062

>  <r_epik_State_Penalty>  (1) 
-0

>  <r_glide_ring_energy>  (1) 
0

>  <r_i_docking_score>  (1) 
-6.1837285314072661

>  <r_i_glide_ecoul>  (1) 
-5.9698088403565279

>  <r_i_glide_eff_state_penalty>  (1) 
-0

>  <r_i_glide_einternal>  (1) 
4.2698074255214324

>  <r_i_glide_emodel>  (1) 
-39.215687614627235

>  <r_i_glide_emodel_strain>  (1) 
1.0238598391744205

>  <r_i_glide_energy>  (1) 
-29.648964350933557

>  <r_i_glide_erotb>  (1) 
0.7579090882420203

>  <r_i_glide_esite>  (1) 
-0.058263345026157112

>  <r_i_glide_evdw>  (1) 
-23.679155510577029

>  <r_i_glide_gscore>  (1) 
-6.1837285314072661

>  <r_i_glide_gscore_strain>  (1) 
0

>  <r_i_glide_hbond>  (1) 
0

>  <r_i_glide_ligand_efficiency>  (1) 
-0.34354047396707033

>  <r_i_glide_ligand_efficiency_ln>  (1) 
-1.5894955331341658

>  <r_i_glide_ligand_efficiency_sa>  (1) 
-0.90033074071164509

>  <r_i_glide_lipo>  (1) 
-2.1080958189835752

>  <r_i_glide_metal>  (1) 
-0

>  <r_i_glide_rewards>  (1) 
-2.6958493540572235

>  <r_lp_Energy>  (1) 
8.6419370000000004

>  <r_lp_tautomer_probability>  (1) 
1

>  <s_epik_cmdline>  (1) 
J2VwaWtfcHl0aG9uJywgJy1waHQnLCAnMS4wJywgJy1waCcsICc3LjQnLCAnLXRuJywgJzgnLCAnLW1hJywgJzUwMCcsICctaW1hZScsICc8aW5maWxlLm1hZT4nLCAnLW9tYWUnLCAnPG91dGZpbGUubWFlPic=

>  <s_epik_input>  (1) 
W0NIM11OMVtDSDJdW0NIMl1jKGMxMiluYyhbY0hdW2NIXTIpW0NIMl1bUytdM1tDSDJdW0NIMl1bQ0BASF0oW0NIMl0zKVtDSDJdW09IXQ==

>  <s_glide_docking_method>  (1) 
confgen

>  <s_i_glide_gridfile>  (1) 
gpcr_drd2_6luq_protein_autoprepared_prepared

>  <s_lp_Force_Field>  (1) 
S-OPLS

>  <s_lp_Variant>  (1) 
DiffSBDD_0-1

>  <s_m_source_file>  (1) 
generated_generic_title2_ligand_DiffSBDD_2026-06-23_prepared.sdf

>  <GenAI_Model>  (1) 
DiffSBDD

>  <Protein>  (1) 
generic_title2

$$$$
DiffSBDD_8
     RDKit          3D

  0  0  0  0  0  0  0  0  0  0999 V3000
M  V30 BEGIN CTAB
M  V30 COUNTS 62 64 0 0 1
M  V30 BEGIN ATOM
M  V30 1 C 6.903260 5.035786 -12.879790 0
M  V30 2 O 10.104976 6.195519 -12.128962 0
M  V30 3 C 5.256142 6.629554 -19.918459 0
M  V30 4 N 9.375410 7.710100 -10.659304 0
M  V30 5 C 7.808817 3.484525 -17.524970 0 CFG=2
M  V30 6 C 6.218120 5.989157 -17.334106 0
M  V30 7 N 8.165828 5.590233 -9.211788 0 CHG=1
M  V30 8 C 6.626558 0.774063 -16.941890 0
M  V30 9 C 8.711783 -0.179605 -18.077811 0
M  V30 10 O 9.643034 2.415859 -18.410997 0
M  V30 11 C 6.351367 5.759009 -19.777994 0
M  V30 12 C 6.403101 -0.469297 -16.071953 0
M  V30 13 O 7.916361 4.565142 -18.400375 0
M  V30 14 S 6.316723 6.993003 -14.712717 0
M  V30 15 C 8.536816 3.881696 -16.227165 0
M  V30 16 C 6.745008 5.663346 -15.911815 0 CFG=2
M  V30 17 N 7.081903 6.433091 -13.274971 0 CFG=1 CHG=1
M  V30 18 F 4.796947 6.942678 -21.152583 0
M  V30 19 C 9.818932 2.520197 -19.816237 0
M  V30 20 C 6.450508 6.824945 -12.014325 0
M  V30 21 C 8.257826 5.345547 -15.892735 0
M  V30 22 C 6.996263 5.510296 -11.424641 0 CFG=2
M  V30 23 C 8.108120 1.032001 -17.329715 0 CFG=1
M  V30 24 N 8.229226 2.246362 -18.157893 0
M  V30 25 C 9.370014 6.485883 -11.192932 0
M  V30 26 C 4.634343 7.172733 -18.781760 0
M  V30 27 C 5.105074 6.855033 -17.496005 0
M  V30 28 C 6.839117 5.426148 -18.498940 0
M  V30 29 C 8.360798 5.449191 -10.664885 0 CFG=1
M  V30 30 H 5.920191 4.633014 -13.137262 0
M  V30 31 H 7.709728 4.370962 -13.189933 0
M  V30 32 H 10.062219 8.385674 -10.962564 0
M  V30 33 H 8.659798 7.977646 -9.984966 0
M  V30 34 H 6.745797 3.376853 -17.327474 0
M  V30 35 H 9.050448 5.597111 -8.726246 0
M  V30 36 H 7.687034 6.490887 -9.070671 0
M  V30 37 H 6.233004 1.608618 -16.365780 0
M  V30 38 H 6.011820 0.706151 -17.840303 0
M  V30 39 H 8.685448 -1.080696 -17.465296 0
M  V30 40 H 8.170097 -0.389074 -19.000920 0
M  V30 41 H 9.760886 -0.029358 -18.333916 0
M  V30 42 H 6.821133 5.341224 -20.657458 0
M  V30 43 H 5.372843 -0.516686 -15.717687 0
M  V30 44 H 6.589214 -1.387643 -16.628100 0
M  V30 45 H 7.053780 -0.459166 -15.197392 0
M  V30 46 H 8.210603 3.224801 -15.420445 0
M  V30 47 H 9.612597 3.749437 -16.355940 0
M  V30 48 H 6.190725 4.789354 -15.570789 0
M  V30 49 H 10.879636 2.641985 -20.035115 0
M  V30 50 H 9.471730 1.623714 -20.332089 0
M  V30 51 H 9.294654 3.385006 -20.227047 0
M  V30 52 H 6.838857 7.749251 -11.587769 0
M  V30 53 H 5.360721 6.854167 -12.076168 0
M  V30 54 H 8.725902 5.536100 -14.932024 0
M  V30 55 H 8.799344 5.989751 -16.580767 0
M  V30 56 H 6.214930 5.015726 -10.844290 0
M  V30 57 H 8.684917 1.175722 -16.415392 0
M  V30 58 H 3.791539 7.838550 -18.896846 0
M  V30 59 H 4.612521 7.280203 -16.636834 0
M  V30 60 H 8.799833 4.461681 -10.817625 0
M  V30 61 H 8.067705 6.660921 -13.238170 0
M  V30 62 H 7.572975 4.855621 -8.853912 0
M  V30 END ATOM
M  V30 BEGIN BOND
M  V30 1 2 11 3
M  V30 2 1 12 8
M  V30 3 1 13 5
M  V30 4 1 15 5
M  V30 5 1 16 6
M  V30 6 1 16 14
M  V30 7 1 17 1
M  V30 8 1 17 14
M  V30 9 1 18 3
M  V30 10 1 19 10
M  V30 11 1 20 17
M  V30 12 1 21 15
M  V30 13 1 21 16
M  V30 14 1 22 1
M  V30 15 1 22 20
M  V30 16 1 23 8
M  V30 17 1 23 9
M  V30 18 1 24 5
M  V30 19 1 24 10
M  V30 20 1 24 23
M  V30 21 2 25 2
M  V30 22 1 25 4
M  V30 23 1 26 3
M  V30 24 1 27 6
M  V30 25 2 27 26
M  V30 26 2 28 6
M  V30 27 1 28 11
M  V30 28 1 28 13
M  V30 29 1 29 7
M  V30 30 1 29 22
M  V30 31 1 29 25
M  V30 32 1 30 1
M  V30 33 1 31 1
M  V30 34 1 32 4
M  V30 35 1 33 4
M  V30 36 1 5 34 CFG=1
M  V30 37 1 35 7
M  V30 38 1 36 7
M  V30 39 1 37 8
M  V30 40 1 38 8
M  V30 41 1 39 9
M  V30 42 1 40 9
M  V30 43 1 41 9
M  V30 44 1 42 11
M  V30 45 1 43 12
M  V30 46 1 44 12
M  V30 47 1 45 12
M  V30 48 1 46 15
M  V30 49 1 47 15
M  V30 50 1 16 48 CFG=1
M  V30 51 1 49 19
M  V30 52 1 50 19
M  V30 53 1 51 19
M  V30 54 1 52 20
M  V30 55 1 53 20
M  V30 56 1 54 21
M  V30 57 1 55 21
M  V30 58 1 22 56 CFG=1
M  V30 59 1 23 57 CFG=1
M  V30 60 1 58 26
M  V30 61 1 59 27
M  V30 62 1 29 60 CFG=1
M  V30 63 1 17 61 CFG=1
M  V30 64 1 62 7
M  V30 END BOND
M  V30 END CTAB
M  END
>  <i_epik_Tot_Q>  (1) 
2

>  <i_epik_Tot_abs_Q>  (1) 
2

>  <i_i_glide_confnum>  (1) 
72

>  <i_i_glide_lignum>  (1) 
13

>  <i_i_glide_posenum>  (1) 
339

>  <i_i_glide_rotatable_bonds>  (1) 
8

>  <i_lp_mmshare_version>  (1) 
72125

>  <i_m_source_file_index>  (1) 
9

>  <i_f3d_flags>  (1) 
0

>  <num_sample>  (1) 
100

>  <b_lp_Chiralities_Consistent>  (1) 
1

>  <r_epik_Charging_Adjusted_Penalty>  (1) 
1.8967099088143093

>  <r_epik_Ionization_Penalty>  (1) 
0.97230814562840162

>  <r_epik_Ionization_Penalty_Charging>  (1) 
0.97206898566559774

>  <r_epik_Ionization_Penalty_Neutral>  (1) 
0.00023915996280393024

>  <r_epik_State_Penalty>  (1) 
0.9246409231487116

>  <r_glide_ring_energy>  (1) 
0

>  <r_i_docking_score>  (1) 
-6.1750474531373394

>  <r_i_glide_ecoul>  (1) 
-11.959559418690285

>  <r_i_glide_eff_state_penalty>  (1) 
0.9246409231487116

>  <r_i_glide_einternal>  (1) 
17.620057731247094

>  <r_i_glide_emodel>  (1) 
-54.472549888506492

>  <r_i_glide_emodel_strain>  (1) 
1.2021923655328521

>  <r_i_glide_energy>  (1) 
-40.100793508705195

>  <r_i_glide_erotb>  (1) 
0.37853286695913396

>  <r_i_glide_esite>  (1) 
-0.25089176318637868

>  <r_i_glide_evdw>  (1) 
-28.141234090014908

>  <r_i_glide_gscore>  (1) 
-7.0996883762860508

>  <r_i_glide_gscore_strain>  (1) 
0

>  <r_i_glide_hbond>  (1) 
-0.38786765094654441

>  <r_i_glide_ligand_efficiency>  (1) 
-0.21293267079783929

>  <r_i_glide_ligand_efficiency_ln>  (1) 
-1.4139292810756223

>  <r_i_glide_ligand_efficiency_sa>  (1) 
-0.65419662723042726

>  <r_i_glide_lipo>  (1) 
-1.8155180939680293

>  <r_i_glide_metal>  (1) 
-0

>  <r_i_glide_rewards>  (1) 
-1.8229481178399434

>  <r_lp_Energy>  (1) 
49.910619999999994

>  <r_lp_tautomer_probability>  (1) 
1

>  <s_epik_Chemistry_Notes>  (1) 
This compound contains an acetal/aminal-like group ( X-CH(R)-Y where X, Y are N, S, or O) that may be acid/base labile, releasing an aldehyde. This compound has a N-S or N-O group and may undergo hydrolysis at high or low pH.

>  <s_epik_cmdline>  (1) 
J2VwaWtfcHl0aG9uJywgJy1waHQnLCAnMS4wJywgJy1waCcsICc3LjQnLCAnLXRuJywgJzgnLCAnLW1hJywgJzUwMCcsICctaW1hZScsICc8aW5maWxlLm1hZT4nLCAnLW9tYWUnLCAnPG91dGZpbGUubWFlPic=

>  <s_epik_input>  (1) 
Tz1DKFtOSDJdKVtDQEBIXShbTkgyXSlbQ0hdKFtDSDJdMSlbQ0gyXU4xU1tDQEBIXTJbQ0gyXVtDSDJdW0NASF0oTihPW0NIM10pW0NASF0oW0NIM10pW0NIMl1bQ0gzXSlPYyhjMjMpW2NIXWMoRilbY0hdW2NIXTM=

>  <s_glide_docking_method>  (1) 
confgen

>  <s_i_glide_gridfile>  (1) 
gpcr_drd2_6luq_protein_autoprepared_prepared

>  <s_lp_Force_Field>  (1) 
S-OPLS

>  <s_lp_Variant>  (1) 
DiffSBDD_8-3

>  <s_m_source_file>  (1) 
generated_generic_title2_ligand_DiffSBDD_2026-06-23_prepared.sdf

>  <GenAI_Model>  (1) 
DiffSBDD

>  <Protein>  (1) 
generic_title2

$$$$
DiffSBDD_79
     RDKit          3D

  0  0  0  0  0  0  0  0  0  0999 V3000
M  V30 BEGIN CTAB
M  V30 COUNTS 53 56 0 0 1
M  V30 BEGIN ATOM
M  V30 1 C 7.366484 5.188101 -16.261864 0
M  V30 2 C 10.145913 6.577514 -7.335316 0 CFG=2
M  V30 3 C 6.336327 5.984452 -18.290278 0
M  V30 4 C 8.655213 5.246410 -11.305553 0
M  V30 5 C 10.429762 7.166000 -8.725556 0
M  V30 6 C 6.109495 5.971871 -15.843556 0
M  V30 7 C 5.435443 6.446797 -17.139733 0
M  V30 8 N 9.945729 6.694881 -9.811850 0
M  V30 9 C 9.143525 5.259261 -13.700358 0
M  V30 10 C 8.975383 5.697337 -9.899419 0
M  V30 11 C 11.074628 6.543984 -4.905500 0
M  V30 12 C 9.019727 7.061158 -6.474435 0
M  V30 13 C 7.247706 3.980250 -12.855493 0
M  V30 14 C 12.031493 8.663749 -7.392887 0
M  V30 15 C 8.041789 4.417649 -13.935557 0
M  V30 16 C 7.555078 4.390638 -11.542385 0
M  V30 17 C 11.043829 8.729436 -6.227981 0 CFG=1
M  V30 18 C 7.709580 3.988459 -15.353344 0
M  V30 19 C 11.353939 8.372080 -8.737568 0
M  V30 20 C 10.449073 7.334106 -6.044626 0 CFG=2
M  V30 21 C 7.141930 4.813135 -17.728235 0
M  V30 22 C 9.448624 5.679468 -12.394473 0
M  V30 23 O 8.371299 5.190173 -8.950718 0
M  V30 24 C 11.679817 9.373230 -4.978322 0
M  V30 25 H 8.201391 5.890080 -16.250357 0
M  V30 26 H 10.388920 5.517885 -7.325346 0
M  V30 27 H 7.018040 6.790606 -18.564947 0
M  V30 28 H 5.769181 5.715581 -19.181831 0
M  V30 29 H 5.420209 5.345918 -15.275507 0
M  V30 30 H 6.373572 6.810166 -15.197729 0
M  V30 31 H 5.294407 7.528282 -17.152205 0
M  V30 32 H 4.448748 5.990896 -17.229222 0
M  V30 33 H 9.754994 5.590044 -14.526531 0
M  V30 34 H 12.128569 6.352406 -5.101472 0
M  V30 35 H 10.978199 7.063302 -3.956910 0
M  V30 36 H 10.575424 5.590251 -4.785703 0
M  V30 37 H 8.449008 6.276967 -5.985015 0
M  V30 38 H 8.437264 7.912944 -6.816822 0
M  V30 39 H 6.401911 3.332413 -13.032780 0
M  V30 40 H 12.770863 7.894490 -7.201414 0
M  V30 41 H 12.575859 9.590219 -7.454016 0
M  V30 42 H 6.940979 4.056318 -10.717773 0
M  V30 43 H 10.229830 9.392132 -6.523435 0
M  V30 44 H 8.573000 3.459622 -15.758229 0
M  V30 45 H 6.887829 3.272549 -15.345026 0
M  V30 46 H 12.116567 8.229477 -9.504048 0
M  V30 47 H 10.767561 9.233488 -9.052458 0
M  V30 48 H 8.080257 4.662724 -18.263370 0
M  V30 49 H 6.575494 3.886014 -17.806781 0
M  V30 50 H 10.293800 6.330541 -12.229747 0
M  V30 51 H 12.556759 8.824260 -4.633065 0
M  V30 52 H 12.004332 10.390352 -5.197586 0
M  V30 53 H 10.975430 9.439564 -4.151282 0
M  V30 END ATOM
M  V30 BEGIN BOND
M  V30 1 1 5 2
M  V30 2 1 6 1
M  V30 3 1 7 3
M  V30 4 1 7 6
M  V30 5 2 8 5
M  V30 6 1 10 4
M  V30 7 1 10 8
M  V30 8 1 12 2
M  V30 9 1 15 9
M  V30 10 2 15 13
M  V30 11 2 16 4
M  V30 12 1 16 13
M  V30 13 1 17 14
M  V30 14 1 18 1
M  V30 15 1 18 15
M  V30 16 1 19 5
M  V30 17 1 19 14
M  V30 18 1 20 2
M  V30 19 1 20 11 CFG=1
M  V30 20 1 20 12
M  V30 21 1 20 17
M  V30 22 1 21 1
M  V30 23 1 21 3
M  V30 24 1 22 4
M  V30 25 2 22 9
M  V30 26 2 23 10
M  V30 27 1 24 17
M  V30 28 1 25 1
M  V30 29 1 2 26 CFG=1
M  V30 30 1 27 3
M  V30 31 1 28 3
M  V30 32 1 29 6
M  V30 33 1 30 6
M  V30 34 1 31 7
M  V30 35 1 32 7
M  V30 36 1 33 9
M  V30 37 1 34 11
M  V30 38 1 35 11
M  V30 39 1 36 11
M  V30 40 1 37 12
M  V30 41 1 38 12
M  V30 42 1 39 13
M  V30 43 1 40 14
M  V30 44 1 41 14
M  V30 45 1 42 16
M  V30 46 1 17 43 CFG=3
M  V30 47 1 44 18
M  V30 48 1 45 18
M  V30 49 1 46 19
M  V30 50 1 47 19
M  V30 51 1 48 21
M  V30 52 1 49 21
M  V30 53 1 50 22
M  V30 54 1 51 24
M  V30 55 1 52 24
M  V30 56 1 53 24
M  V30 END BOND
M  V30 END CTAB
M  END
>  <i_epik_Tot_Q>  (1) 
0

>  <i_epik_Tot_abs_Q>  (1) 
0

>  <i_i_glide_confnum>  (1) 
35

>  <i_i_glide_lignum>  (1) 
138

>  <i_i_glide_posenum>  (1) 
385

>  <i_i_glide_rotatable_bonds>  (1) 
4

>  <i_lp_mmshare_version>  (1) 
72125

>  <i_m_source_file_index>  (1) 
80

>  <i_f3d_flags>  (1) 
0

>  <num_sample>  (1) 
100

>  <b_lp_Chiralities_Consistent>  (1) 
1

>  <r_epik_Charging_Adjusted_Penalty>  (1) 
0

>  <r_epik_Ionization_Penalty>  (1) 
0

>  <r_epik_Ionization_Penalty_Charging>  (1) 
0

>  <r_epik_Ionization_Penalty_Neutral>  (1) 
0

>  <r_epik_State_Penalty>  (1) 
-0

>  <r_glide_ring_energy>  (1) 
1.0400861348357753

>  <r_i_docking_score>  (1) 
-6.1748562700856784

>  <r_i_glide_ecoul>  (1) 
0.99423697044849413

>  <r_i_glide_eff_state_penalty>  (1) 
-0

>  <r_i_glide_einternal>  (1) 
3.1803420600729329

>  <r_i_glide_emodel>  (1) 
-38.74382756380782

>  <r_i_glide_emodel_strain>  (1) 
0.09288164533737131

>  <r_i_glide_energy>  (1) 
-30.754105633411708

>  <r_i_glide_erotb>  (1) 
0.71538486133248902

>  <r_i_glide_esite>  (1) 
-0.11287674072576231

>  <r_i_glide_evdw>  (1) 
-31.748342603860202

>  <r_i_glide_gscore>  (1) 
-6.1748562700856784

>  <r_i_glide_gscore_strain>  (1) 
0

>  <r_i_glide_hbond>  (1) 
0

>  <r_i_glide_ligand_efficiency>  (1) 
-0.2572856779202366

>  <r_i_glide_ligand_efficiency_ln>  (1) 
-1.4779264511226848

>  <r_i_glide_ligand_efficiency_sa>  (1) 
-0.74214031685342297

>  <r_i_glide_lipo>  (1) 
-3.2355546015212133

>  <r_i_glide_metal>  (1) 
-0

>  <r_i_glide_rewards>  (1) 
-2.103528204545456

>  <r_lp_Energy>  (1) 
51.233270999999995

>  <r_lp_tautomer_probability>  (1) 
1

>  <s_epik_Chemistry_Notes>  (1) 
This compound has an imine and may undergo hydrolysis.

>  <s_epik_cmdline>  (1) 
J2VwaWtfcHl0aG9uJywgJy1waHQnLCAnMS4wJywgJy1waCcsICc3LjQnLCAnLXRuJywgJzgnLCAnLW1hJywgJzUwMCcsICctaW1hZScsICc8aW5maWxlLm1hZT4nLCAnLW9tYWUnLCAnPG91dGZpbGUubWFlPic=

>  <s_epik_input>  (1) 
W0NIMl0xW0NIMl1bQ0gyXVtDSDJdW0NIXTFbQ0gyXWMoW2NIXVtjSF0yKVtjSF1bY0hdYzJDKD1PKS9OPUMoXFtDQEhdKFtDSDJdMylDMzRbQ0gzXSlbQ0gyXVtDSDJdW0NAQEhdNFtDSDNd

>  <s_glide_docking_method>  (1) 
confgen

>  <s_i_glide_gridfile>  (1) 
gpcr_drd2_6luq_protein_autoprepared_prepared

>  <s_lp_Force_Field>  (1) 
S-OPLS

>  <s_lp_Variant>  (1) 
DiffSBDD_79-2

>  <s_m_source_file>  (1) 
generated_generic_title2_ligand_DiffSBDD_2026-06-23_prepared.sdf

>  <GenAI_Model>  (1) 
DiffSBDD

>  <Protein>  (1) 
generic_title2

$$$$
DiffSBDD_13
     RDKit          3D

  0  0  0  0  0  0  0  0  0  0999 V3000
M  V30 BEGIN CTAB
M  V30 COUNTS 57 60 0 0 1
M  V30 BEGIN ATOM
M  V30 1 C 6.324277 6.108075 -17.312775 0
M  V30 2 N 8.975414 7.338685 -6.966248 0 CHG=1
M  V30 3 N 6.106222 6.950792 -16.259885 0
M  V30 4 C 6.606436 6.374269 -13.852261 0 CFG=1
M  V30 5 N 5.775870 7.104825 -12.925590 0
M  V30 6 C 10.260425 6.856079 -9.071139 0 CFG=2
M  V30 7 N 7.347895 5.278074 -17.539102 0
M  V30 8 C 11.656497 8.791261 -7.260233 0
M  V30 9 C 7.307458 4.535945 -9.984993 0
M  V30 10 C 9.167653 6.119265 -9.876849 0
M  V30 11 C 6.874349 4.830020 -18.699239 0
M  V30 12 F 9.080182 2.370520 -19.883325 0
M  V30 13 C 5.388889 6.163778 -18.190797 0
M  V30 14 C 11.438965 7.321463 -6.864583 0
M  V30 15 C 6.975118 7.150052 -15.116651 0
M  V30 16 C 11.685651 8.948717 -8.787483 0
M  V30 17 C 5.488102 5.347881 -19.360928 0
M  V30 18 C 4.425543 7.109391 -17.723264 0
M  V30 19 C 9.009931 6.375981 -11.258353 0
M  V30 20 O 7.504816 3.874589 -19.467359 0
M  V30 21 C 10.189623 6.715566 -7.524881 0 CFG=1
M  V30 22 F 9.650653 4.183627 -18.822827 0
M  V30 23 F 8.428334 2.627257 -17.823085 0
M  V30 24 C 4.897651 7.590061 -16.511367 0
M  V30 25 C 8.641991 3.289603 -18.989281 0
M  V30 26 O 6.181631 4.132315 -12.055095 0
M  V30 27 C 10.435396 8.347991 -9.449197 0
M  V30 28 C 7.151361 4.791414 -11.351825 0
M  V30 29 O 7.858324 6.004057 -13.329631 0
M  V30 30 C 8.309449 5.190229 -9.244534 0
M  V30 31 C 7.999786 5.723626 -11.993079 0
M  V30 32 H 9.023667 8.334784 -7.114511 0
M  V30 33 H 8.126605 7.013790 -7.431469 0
M  V30 34 H 6.091497 5.458307 -14.143400 0
M  V30 35 H 6.323593 7.630782 -12.257320 0
M  V30 36 H 5.153522 7.750207 -13.387946 0
M  V30 37 H 11.192087 6.390222 -9.363348 0
M  V30 38 H 12.592380 9.155681 -6.836018 0
M  V30 39 H 10.871849 9.413844 -6.830268 0
M  V30 40 H 6.655046 3.828466 -9.495412 0
M  V30 41 H 12.305758 6.743659 -7.184899 0
M  V30 42 H 11.383028 7.223761 -5.779355 0
M  V30 43 H 7.074612 8.213845 -14.898281 0
M  V30 44 H 7.956068 6.788713 -15.404345 0
M  V30 45 H 12.577447 8.460870 -9.184504 0
M  V30 46 H 11.775370 9.997114 -9.064321 0
M  V30 47 H 4.744713 4.558206 -19.452923 0
M  V30 48 H 5.648986 5.911998 -20.279757 0
M  V30 49 H 3.507657 7.410192 -18.206629 0
M  V30 50 H 9.655498 7.078585 -11.757885 0
M  V30 51 H 10.184439 5.659609 -7.254421 0
M  V30 52 H 4.495698 8.319402 -15.823129 0
M  V30 53 H 5.620524 3.611539 -11.503248 0
M  V30 54 H 10.566452 8.470118 -10.520691 0
M  V30 55 H 9.543196 8.917528 -9.187328 0
M  V30 56 H 8.410944 4.977468 -8.194227 0
M  V30 57 H 8.892759 7.147429 -5.977953 0
M  V30 END ATOM
M  V30 BEGIN BOND
M  V30 1 1 3 1
M  V30 2 1 5 4
M  V30 3 1 7 1
M  V30 4 1 10 6
M  V30 5 2 11 7
M  V30 6 2 13 1
M  V30 7 1 14 8
M  V30 8 1 15 3
M  V30 9 1 15 4
M  V30 10 1 16 8
M  V30 11 1 17 11
M  V30 12 1 17 13
M  V30 13 1 18 13
M  V30 14 2 19 10
M  V30 15 1 20 11
M  V30 16 1 21 2
M  V30 17 1 21 6
M  V30 18 1 21 14
M  V30 19 1 24 3
M  V30 20 2 24 18
M  V30 21 1 25 12
M  V30 22 1 25 20
M  V30 23 1 25 22
M  V30 24 1 25 23
M  V30 25 1 27 6
M  V30 26 1 27 16
M  V30 27 1 28 9
M  V30 28 1 28 26
M  V30 29 1 29 4
M  V30 30 2 30 9
M  V30 31 1 30 10
M  V30 32 1 31 19
M  V30 33 2 31 28
M  V30 34 1 31 29
M  V30 35 1 32 2
M  V30 36 1 33 2
M  V30 37 1 4 34 CFG=3
M  V30 38 1 35 5
M  V30 39 1 36 5
M  V30 40 1 6 37 CFG=3
M  V30 41 1 38 8
M  V30 42 1 39 8
M  V30 43 1 40 9
M  V30 44 1 41 14
M  V30 45 1 42 14
M  V30 46 1 43 15
M  V30 47 1 44 15
M  V30 48 1 45 16
M  V30 49 1 46 16
M  V30 50 1 47 17
M  V30 51 1 48 17
M  V30 52 1 49 18
M  V30 53 1 50 19
M  V30 54 1 21 51 CFG=3
M  V30 55 1 52 24
M  V30 56 1 53 26
M  V30 57 1 54 27
M  V30 58 1 55 27
M  V30 59 1 56 30
M  V30 60 1 57 2
M  V30 END BOND
M  V30 END CTAB
M  END
>  <i_epik_Tot_Q>  (1) 
1

>  <i_epik_Tot_abs_Q>  (1) 
1

>  <i_i_glide_confnum>  (1) 
201

>  <i_i_glide_lignum>  (1) 
25

>  <i_i_glide_posenum>  (1) 
34

>  <i_i_glide_rotatable_bonds>  (1) 
8

>  <i_lp_mmshare_version>  (1) 
72125

>  <i_m_source_file_index>  (1) 
14

>  <i_f3d_flags>  (1) 
0

>  <num_sample>  (1) 
100

>  <b_lp_Chiralities_Consistent>  (1) 
1

>  <r_epik_Charging_Adjusted_Penalty>  (1) 
0.0019488154280528094

>  <r_epik_Ionization_Penalty>  (1) 
0.0073063651558797956

>  <r_epik_Ionization_Penalty_Charging>  (1) 
0.0019488154280528094

>  <r_epik_Ionization_Penalty_Neutral>  (1) 
0.0053575497278269858

>  <r_epik_State_Penalty>  (1) 
-0

>  <r_glide_ring_energy>  (1) 
0

>  <r_i_docking_score>  (1) 
-6.1705801038131387

>  <r_i_glide_ecoul>  (1) 
-2.5318017835652054

>  <r_i_glide_eff_state_penalty>  (1) 
-0

>  <r_i_glide_einternal>  (1) 
13.155795730452315

>  <r_i_glide_emodel>  (1) 
-38.995869066309268

>  <r_i_glide_emodel_strain>  (1) 
0.70737098220295991

>  <r_i_glide_energy>  (1) 
-32.372347141895318

>  <r_i_glide_erotb>  (1) 
0.43404420260612414

>  <r_i_glide_esite>  (1) 
-0.086614766266711343

>  <r_i_glide_evdw>  (1) 
-29.840545358330115

>  <r_i_glide_gscore>  (1) 
-6.1705801038131387

>  <r_i_glide_gscore_strain>  (1) 
0

>  <r_i_glide_hbond>  (1) 
-0.16759057172996236

>  <r_i_glide_ligand_efficiency>  (1) 
-0.1990509710907464

>  <r_i_glide_ligand_efficiency_ln>  (1) 
-1.3916549189793248

>  <r_i_glide_ligand_efficiency_sa>  (1) 
-0.62529486942418933

>  <r_i_glide_lipo>  (1) 
-1.9306645385999204

>  <r_i_glide_metal>  (1) 
-0

>  <r_i_glide_rewards>  (1) 
-2.547956894371382

>  <r_lp_Energy>  (1) 
39.564299999999996

>  <r_lp_tautomer_probability>  (1) 
1

>  <s_epik_Chemistry_Notes>  (1) 
This compound has an imine and may undergo hydrolysis. This compound contains an acetal/aminal-like group ( X-CH(R)-Y where X, Y are N, S, or O) that may be acid/base labile, releasing an aldehyde.

>  <s_epik_cmdline>  (1) 
J2VwaWtfcHl0aG9uJywgJy1waHQnLCAnMS4wJywgJy1waCcsICc3LjQnLCAnLXRuJywgJzgnLCAnLW1hJywgJzUwMCcsICctaW1hZScsICc8aW5maWxlLm1hZT4nLCAnLW9tYWUnLCAnPG91dGZpbGUubWFlPic=

>  <s_epik_input>  (1) 
RkMoRikoRilPQyg9TjEpW0NIMl1jKGMxMilbY0hdW2NIXW4yW0NIMl1bQ0BIXShbTkgyXSlPYyhjKFtPSF0pW2NIXVtjSF0zKVtjSF1jM1tDQEBIXTRbQ0BIXShbTkgyXSlbQ0gyXVtDSDJdW0NIMl1bQ0gyXTQ=

>  <s_glide_docking_method>  (1) 
confgen

>  <s_i_glide_gridfile>  (1) 
gpcr_drd2_6luq_protein_autoprepared_prepared

>  <s_lp_Force_Field>  (1) 
S-OPLS

>  <s_lp_Variant>  (1) 
DiffSBDD_13-1

>  <s_m_source_file>  (1) 
generated_generic_title2_ligand_DiffSBDD_2026-06-23_prepared.sdf

>  <GenAI_Model>  (1) 
DiffSBDD

>  <Protein>  (1) 
generic_title2

$$$$
DiffSBDD_0
     RDKit          3D

  0  0  0  0  0  0  0  0  0  0999 V3000
M  V30 BEGIN CTAB
M  V30 COUNTS 39 41 0 0 1
M  V30 BEGIN ATOM
M  V30 1 N 10.720841 8.874793 -6.553018 0
M  V30 2 C 11.792934 7.133357 -2.318194 0
M  V30 3 C 10.276528 6.486578 -6.255850 0
M  V30 4 C 9.375352 7.764217 -8.246692 0
M  V30 5 O 6.850979 5.025170 -13.036950 0
M  V30 6 C 12.438812 9.370491 -3.379412 0
M  V30 7 N 12.244429 7.896830 -3.480262 0
M  V30 8 C 9.455822 5.229105 -9.447481 0
M  V30 9 C 11.953905 10.024882 -4.785062 0
M  V30 10 C 11.532974 7.695270 -4.633299 0
M  V30 11 C 11.375437 8.800898 -5.374320 0
M  V30 12 C 10.985863 6.484487 -5.046382 0
M  V30 13 C 10.166640 7.703755 -6.969828 0
M  V30 14 C 8.940333 4.854446 -10.835523 0
M  V30 15 C 7.833188 6.021719 -12.846897 0
M  V30 16 S 10.175429 6.891397 -9.612463 0 CHG=1
M  V30 17 C 9.133941 7.305208 -11.045980 0
M  V30 18 C 8.219923 6.104595 -11.361006 0 CFG=2
M  V30 19 H 10.900326 6.531874 -2.485240 0
M  V30 20 H 12.586553 6.458585 -1.995717 0
M  V30 21 H 11.574123 7.806657 -1.489449 0
M  V30 22 H 9.814143 5.590200 -6.625205 0
M  V30 23 H 9.142124 8.793051 -8.521118 0
M  V30 24 H 8.464364 7.249872 -7.985012 0
M  V30 25 H 6.092112 5.245117 -12.517339 0
M  V30 26 H 11.853006 9.772479 -2.551632 0
M  V30 27 H 13.486129 9.590166 -3.184751 0
M  V30 28 H 10.175216 4.515416 -9.048179 0
M  V30 29 H 8.608747 5.242011 -8.761738 0
M  V30 30 H 12.764270 10.389566 -5.415306 0
M  V30 31 H 11.189128 10.790284 -4.658154 0
M  V30 32 H 11.096077 5.590220 -4.460846 0
M  V30 33 H 8.277264 3.990232 -10.798910 0
M  V30 34 H 9.775338 4.594683 -11.487811 0
M  V30 35 H 8.701955 5.797678 -13.467415 0
M  V30 36 H 7.428482 6.975671 -13.188604 0
M  V30 37 H 9.808296 7.481712 -11.884639 0
M  V30 38 H 8.575596 8.228602 -10.889836 0
M  V30 39 H 7.302337 6.217720 -10.785028 0
M  V30 END ATOM
M  V30 BEGIN BOND
M  V30 1 1 7 2
M  V30 2 1 7 6
M  V30 3 1 9 6
M  V30 4 1 10 7
M  V30 5 1 11 1
M  V30 6 1 11 9
M  V30 7 2 11 10
M  V30 8 2 12 3
M  V30 9 1 12 10
M  V30 10 2 13 1
M  V30 11 1 13 3
M  V30 12 1 13 4
M  V30 13 1 14 8
M  V30 14 1 15 5
M  V30 15 1 16 4 CFG=1
M  V30 16 1 16 8
M  V30 17 1 17 16
M  V30 18 1 18 14
M  V30 19 1 18 15
M  V30 20 1 18 17
M  V30 21 1 19 2
M  V30 22 1 20 2
M  V30 23 1 21 2
M  V30 24 1 22 3
M  V30 25 1 23 4
M  V30 26 1 24 4
M  V30 27 1 25 5
M  V30 28 1 26 6
M  V30 29 1 27 6
M  V30 30 1 28 8
M  V30 31 1 29 8
M  V30 32 1 30 9
M  V30 33 1 31 9
M  V30 34 1 32 12
M  V30 35 1 33 14
M  V30 36 1 34 14
M  V30 37 1 35 15
M  V30 38 1 36 15
M  V30 39 1 37 17
M  V30 40 1 38 17
M  V30 41 1 18 39 CFG=1
M  V30 END BOND
M  V30 END CTAB
M  END
>  <i_epik_Tot_Q>  (1) 
1

>  <i_epik_Tot_abs_Q>  (1) 
1

>  <i_i_glide_confnum>  (1) 
10

>  <i_i_glide_lignum>  (1) 
1

>  <i_i_glide_posenum>  (1) 
121

>  <i_i_glide_rotatable_bonds>  (1) 
4

>  <i_lp_mmshare_version>  (1) 
72125

>  <i_m_source_file_index>  (1) 
1

>  <i_f3d_flags>  (1) 
0

>  <num_sample>  (1) 
100

>  <b_lp_Chiralities_Consistent>  (1) 
1

>  <r_epik_Charging_Adjusted_Penalty>  (1) 
0

>  <r_epik_Ionization_Penalty>  (1) 
0.00029429108255977062

>  <r_epik_Ionization_Penalty_Charging>  (1) 
0

>  <r_epik_Ionization_Penalty_Neutral>  (1) 
0.00029429108255977062

>  <r_epik_State_Penalty>  (1) 
-0

>  <r_glide_ring_energy>  (1) 
0

>  <r_i_docking_score>  (1) 
-6.1698064072791112

>  <r_i_glide_ecoul>  (1) 
-5.8311956819244291

>  <r_i_glide_eff_state_penalty>  (1) 
-0

>  <r_i_glide_einternal>  (1) 
4.2968861132092808

>  <r_i_glide_emodel>  (1) 
-39.291227203172994

>  <r_i_glide_emodel_strain>  (1) 
1.2768647173824661

>  <r_i_glide_energy>  (1) 
-30.019698482472535

>  <r_i_glide_erotb>  (1) 
0.7579090882420203

>  <r_i_glide_esite>  (1) 
-0.0581469130199758

>  <r_i_glide_evdw>  (1) 
-24.188502800548104

>  <r_i_glide_gscore>  (1) 
-6.1698064072791112

>  <r_i_glide_gscore_strain>  (1) 
0

>  <r_i_glide_hbond>  (1) 
0

>  <r_i_glide_ligand_efficiency>  (1) 
-0.34276702262661729

>  <r_i_glide_ligand_efficiency_ln>  (1) 
-1.5859169229152588

>  <r_i_glide_ligand_efficiency_sa>  (1) 
-0.89830372476731346

>  <r_i_glide_lipo>  (1) 
-2.1002221810840425

>  <r_i_glide_metal>  (1) 
-0

>  <r_i_glide_rewards>  (1) 
-2.6852419091010438

>  <r_lp_Energy>  (1) 
8.6419370000000004

>  <r_lp_tautomer_probability>  (1) 
1

>  <s_epik_cmdline>  (1) 
J2VwaWtfcHl0aG9uJywgJy1waHQnLCAnMS4wJywgJy1waCcsICc3LjQnLCAnLXRuJywgJzgnLCAnLW1hJywgJzUwMCcsICctaW1hZScsICc8aW5maWxlLm1hZT4nLCAnLW9tYWUnLCAnPG91dGZpbGUubWFlPic=

>  <s_epik_input>  (1) 
W0NIM11OMVtDSDJdW0NIMl1jKGMxMiluYyhbY0hdW2NIXTIpW0NIMl1bUytdM1tDSDJdW0NIMl1bQ0BASF0oW0NIMl0zKVtDSDJdW09IXQ==

>  <s_glide_docking_method>  (1) 
confgen

>  <s_i_glide_gridfile>  (1) 
gpcr_drd2_6luq_protein_autoprepared_prepared

>  <s_lp_Force_Field>  (1) 
S-OPLS

>  <s_lp_Variant>  (1) 
DiffSBDD_0-1

>  <s_m_source_file>  (1) 
generated_generic_title2_ligand_DiffSBDD_2026-06-23_prepared.sdf

>  <GenAI_Model>  (1) 
DiffSBDD

>  <Protein>  (1) 
generic_title2

$$$$
DiffSBDD_72
     RDKit          3D

  0  0  0  0  0  0  0  0  0  0999 V3000
M  V30 BEGIN CTAB
M  V30 COUNTS 47 49 0 0 1
M  V30 BEGIN ATOM
M  V30 1 C 12.195038 8.203870 -3.022472 0
M  V30 2 C 12.158509 8.474910 -7.504862 0
M  V30 3 C 9.602946 8.382139 -6.910778 0
M  V30 4 C 11.375444 8.130763 -5.157820 0
M  V30 5 C 12.801432 8.790136 -1.804641 0
M  V30 6 C 11.233005 6.805203 -4.798564 0
M  V30 7 C 7.803747 3.427439 -13.174172 0
M  V30 8 C 7.217935 4.429159 -14.174499 0
M  V30 9 C 11.033691 8.762322 -6.479630 0 CFG=1
M  V30 10 N 11.922973 8.902921 -4.123057 0
M  V30 11 C 9.020470 6.518241 -11.584961 0
M  V30 12 C 9.658686 7.488094 -9.307242 0 CFG=2
M  V30 13 C 9.497282 7.151244 -7.810595 0
M  V30 14 C 8.039977 5.514568 -12.220153 0 CFG=1
M  V30 15 C 7.755114 5.768783 -13.697528 0
M  V30 16 S 11.775567 6.521795 -3.164424 0
M  V30 17 O 8.591529 4.206916 -12.284800 0
M  V30 18 O 9.375519 5.135312 -9.677965 0 CHG=-1
M  V30 19 N 8.975507 6.360995 -10.080151 0 CFG=2 CHG=1
M  V30 20 C 11.125307 7.709233 -9.738450 0
M  V30 21 C 11.870297 8.821381 -8.976810 0
M  V30 22 H 13.047535 9.019586 -7.184285 0
M  V30 23 H 12.435727 7.421786 -7.457810 0
M  V30 24 H 8.977209 8.248668 -6.026834 0
M  V30 25 H 9.139115 9.206213 -7.444160 0
M  V30 26 H 13.775533 9.189509 -2.062581 0
M  V30 27 H 12.175308 9.590283 -1.409579 0
M  V30 28 H 12.942332 8.027816 -1.040846 0
M  V30 29 H 10.847833 5.990303 -5.390069 0
M  V30 30 H 8.418351 2.664656 -13.652302 0
M  V30 31 H 7.011880 2.926148 -12.616414 0
M  V30 32 H 7.515727 4.213646 -15.200982 0
M  V30 33 H 6.128797 4.412285 -14.127779 0
M  V30 34 H 11.014776 9.844132 -6.335391 0
M  V30 35 H 8.717200 7.544249 -11.793918 0
M  V30 36 H 10.044543 6.356458 -11.919969 0
M  V30 37 H 9.078825 8.376908 -9.556917 0
M  V30 38 H 8.513566 6.715432 -7.651016 0
M  V30 39 H 10.199508 6.372548 -7.513450 0
M  V30 40 H 7.100360 5.490125 -11.663448 0
M  V30 41 H 7.062120 6.593679 -13.865227 0
M  V30 42 H 8.685781 5.990005 -14.219085 0
M  V30 43 H 11.162871 7.959587 -10.797159 0
M  V30 44 H 11.687568 6.790247 -9.620742 0
M  V30 45 H 11.374239 9.784313 -9.072557 0
M  V30 46 H 12.832293 8.952000 -9.474094 0
M  V30 47 H 7.966329 6.521781 -9.841838 0
M  V30 END ATOM
M  V30 BEGIN BOND
M  V30 1 1 5 1
M  V30 2 2 6 4
M  V30 3 1 8 7
M  V30 4 1 9 2
M  V30 5 1 9 3
M  V30 6 1 9 4
M  V30 7 2 10 1
M  V30 8 1 10 4
M  V30 9 1 13 3
M  V30 10 1 13 12
M  V30 11 1 14 11
M  V30 12 1 15 8
M  V30 13 1 15 14
M  V30 14 1 16 1
M  V30 15 1 16 6
M  V30 16 1 17 7
M  V30 17 1 17 14
M  V30 18 1 19 11
M  V30 19 1 19 12
M  V30 20 1 19 18
M  V30 21 1 20 12
M  V30 22 1 21 2
M  V30 23 1 21 20
M  V30 24 1 22 2
M  V30 25 1 23 2
M  V30 26 1 24 3
M  V30 27 1 25 3
M  V30 28 1 26 5
M  V30 29 1 27 5
M  V30 30 1 28 5
M  V30 31 1 29 6
M  V30 32 1 30 7
M  V30 33 1 31 7
M  V30 34 1 32 8
M  V30 35 1 33 8
M  V30 36 1 9 34 CFG=1
M  V30 37 1 35 11
M  V30 38 1 36 11
M  V30 39 1 12 37 CFG=1
M  V30 40 1 38 13
M  V30 41 1 39 13
M  V30 42 1 14 40 CFG=1
M  V30 43 1 41 15
M  V30 44 1 42 15
M  V30 45 1 43 20
M  V30 46 1 44 20
M  V30 47 1 45 21
M  V30 48 1 46 21
M  V30 49 1 19 47 CFG=1
M  V30 END BOND
M  V30 END CTAB
M  END
>  <i_epik_Tot_Q>  (1) 
0

>  <i_epik_Tot_abs_Q>  (1) 
2

>  <i_i_glide_confnum>  (1) 
216

>  <i_i_glide_lignum>  (1) 
119

>  <i_i_glide_posenum>  (1) 
271

>  <i_i_glide_rotatable_bonds>  (1) 
4

>  <i_lp_mmshare_version>  (1) 
72125

>  <i_m_source_file_index>  (1) 
73

>  <i_f3d_flags>  (1) 
0

>  <num_sample>  (1) 
100

>  <b_lp_Chiralities_Consistent>  (1) 
1

>  <r_epik_Charging_Adjusted_Penalty>  (1) 
0.52782075658533367

>  <r_epik_Ionization_Penalty>  (1) 
0.0061787587503483845

>  <r_epik_Ionization_Penalty_Charging>  (1) 
0.0058496280333447418

>  <r_epik_Ionization_Penalty_Neutral>  (1) 
0.00032913071700364294

>  <r_epik_State_Penalty>  (1) 
0.52197112855198891

>  <r_glide_ring_energy>  (1) 
0.39787127286497581

>  <r_i_docking_score>  (1) 
-6.1676746150082762

>  <r_i_glide_ecoul>  (1) 
-3.8851126853775844

>  <r_i_glide_eff_state_penalty>  (1) 
0.52197112855198891

>  <r_i_glide_einternal>  (1) 
2.8250715953251602

>  <r_i_glide_emodel>  (1) 
-49.586550865508734

>  <r_i_glide_emodel_strain>  (1) 
0.00010412925485070446

>  <r_i_glide_energy>  (1) 
-36.528807885514027

>  <r_i_glide_erotb>  (1) 
0.76903323708162985

>  <r_i_glide_esite>  (1) 
-0.10000000000000001

>  <r_i_glide_evdw>  (1) 
-32.643695200136442

>  <r_i_glide_gscore>  (1) 
-6.6896457435602654

>  <r_i_glide_gscore_strain>  (1) 
0

>  <r_i_glide_hbond>  (1) 
-0.12425980659259768

>  <r_i_glide_ligand_efficiency>  (1) 
-0.29369879119087028

>  <r_i_glide_ligand_efficiency_ln>  (1) 
-1.5249450856007445

>  <r_i_glide_ligand_efficiency_sa>  (1) 
-0.81029269559040262

>  <r_i_glide_lipo>  (1) 
-2.8271617385085648

>  <r_i_glide_metal>  (1) 
-0

>  <r_i_glide_rewards>  (1) 
-2.192305772727273

>  <r_lp_Energy>  (1) 
13.512606

>  <s_epik_cmdline>  (1) 
J2VwaWtfcHl0aG9uJywgJy1waHQnLCAnMS4wJywgJy1waCcsICc3LjQnLCAnLXRuJywgJzgnLCAnLW1hJywgJzUwMCcsICctaW1hZScsICc8aW5maWxlLm1hZT4nLCAnLW9tYWUnLCAnPG91dGZpbGUubWFlPic=

>  <s_epik_input>  (1) 
W0NIM11jMW5jKFtjSF1zMSlbQ0BIXTJbQ0gyXVtDSDJdW0NIMl1bQ0BIXShbQ0gyXVtDSDJdMilOKFtPSF0pW0NIMl1bQ0BIXTNbQ0gyXVtDSDJdW0NIMl1PMw==

>  <s_glide_docking_method>  (1) 
confgen

>  <s_i_glide_gridfile>  (1) 
gpcr_drd2_6luq_protein_autoprepared_prepared

>  <s_lp_Force_Field>  (1) 
S-OPLS

>  <s_lp_Variant>  (1) 
DiffSBDD_72-3

>  <s_m_source_file>  (1) 
generated_generic_title2_ligand_DiffSBDD_2026-06-23_prepared.sdf

>  <GenAI_Model>  (1) 
DiffSBDD

>  <Protein>  (1) 
generic_title2

$$$$
DiffSBDD_34
     RDKit          3D

  0  0  0  0  0  0  0  0  0  0999 V3000
M  V30 BEGIN CTAB
M  V30 COUNTS 48 50 0 0 1
M  V30 BEGIN ATOM
M  V30 1 O 11.810783 6.994985 -7.407833 0
M  V30 2 C 6.567260 6.002074 -16.018682 0
M  V30 3 C 5.036838 6.771620 -18.286875 0
M  V30 4 C 10.726790 7.897456 -7.443893 0 CFG=2
M  V30 5 C 10.912816 6.801765 -5.277537 0
M  V30 6 C 8.539142 6.386027 -12.950295 0
M  V30 7 C 10.261319 7.987602 -5.985377 0
M  V30 8 C 11.631473 6.032651 -6.384930 0
M  V30 9 C 8.812300 5.077748 -12.516376 0
M  V30 10 N 7.771193 6.661334 -14.031069 0
M  V30 11 C 7.522179 4.018704 -17.376494 0
M  V30 12 C 5.855560 5.638852 -18.357690 0
M  V30 13 C 7.563462 4.280137 -14.422119 0
M  V30 14 C 7.333512 5.622722 -14.791768 0
M  V30 15 C 8.975419 6.088523 -8.149250 0
M  V30 16 O 11.180908 7.590201 -10.273261 0
M  V30 17 C 8.297467 4.009636 -13.263771 0
M  V30 18 C 9.133432 7.589769 -12.227645 0
M  V30 19 C 6.623351 5.240649 -17.242624 0
M  V30 20 C 10.000838 7.540739 -9.922535 0
M  V30 21 C 9.622616 7.463787 -8.434318 0 CFG=2
M  V30 22 C 4.983629 7.525446 -17.109184 0
M  V30 23 C 5.746482 7.155641 -15.991044 0
M  V30 24 N 8.975436 7.547949 -10.785026 0
M  V30 25 Cl 8.575374 2.390216 -12.785040 0
M  V30 26 H 4.449017 7.066545 -19.143287 0
M  V30 27 H 11.114015 8.866553 -7.761259 0
M  V30 28 H 10.185871 6.178587 -4.756055 0
M  V30 29 H 11.633709 7.159889 -4.541736 0
M  V30 30 H 10.595472 8.922310 -5.534259 0
M  V30 31 H 9.173548 7.969427 -5.912758 0
M  V30 32 H 11.042114 5.213960 -6.784985 0
M  V30 33 H 12.575392 5.590636 -6.064565 0
M  V30 34 H 9.414533 4.898828 -11.637441 0
M  V30 35 H 8.467509 4.125661 -16.845086 0
M  V30 36 H 7.007016 3.108403 -17.071173 0
M  V30 37 H 7.790573 3.880937 -18.424263 0
M  V30 38 H 5.899563 5.067204 -19.272998 0
M  V30 39 H 7.170400 3.470079 -15.007642 0
M  V30 40 H 8.059595 5.959067 -8.724576 0
M  V30 41 H 9.631502 5.265248 -8.430144 0
M  V30 42 H 8.696786 5.970922 -7.102746 0
M  V30 43 H 10.178119 7.673960 -12.525354 0
M  V30 44 H 8.642348 8.499024 -12.575939 0
M  V30 45 H 8.858238 8.224763 -8.298256 0
M  V30 46 H 4.351469 8.390276 -17.058232 0
M  V30 47 H 5.687214 7.748924 -15.090048 0
M  V30 48 H 8.018071 7.541354 -10.406794 0
M  V30 END ATOM
M  V30 BEGIN BOND
M  V30 1 1 4 1
M  V30 2 1 7 4
M  V30 3 1 7 5
M  V30 4 1 8 1
M  V30 5 1 8 5
M  V30 6 1 9 6
M  V30 7 2 10 6
M  V30 8 1 12 3
M  V30 9 1 14 2
M  V30 10 1 14 10
M  V30 11 2 14 13
M  V30 12 2 17 9
M  V30 13 1 17 13
M  V30 14 1 18 6
M  V30 15 1 19 2
M  V30 16 1 19 11
M  V30 17 2 19 12
M  V30 18 2 20 16
M  V30 19 1 21 4
M  V30 20 1 21 15
M  V30 21 1 21 20
M  V30 22 2 22 3
M  V30 23 2 23 2
M  V30 24 1 23 22
M  V30 25 1 24 18
M  V30 26 1 24 20
M  V30 27 1 25 17
M  V30 28 1 26 3
M  V30 29 1 4 27 CFG=3
M  V30 30 1 28 5
M  V30 31 1 29 5
M  V30 32 1 30 7
M  V30 33 1 31 7
M  V30 34 1 32 8
M  V30 35 1 33 8
M  V30 36 1 34 9
M  V30 37 1 35 11
M  V30 38 1 36 11
M  V30 39 1 37 11
M  V30 40 1 38 12
M  V30 41 1 39 13
M  V30 42 1 40 15
M  V30 43 1 41 15
M  V30 44 1 42 15
M  V30 45 1 43 18
M  V30 46 1 44 18
M  V30 47 1 21 45 CFG=3
M  V30 48 1 46 22
M  V30 49 1 47 23
M  V30 50 1 48 24
M  V30 END BOND
M  V30 END CTAB
M  END
>  <i_epik_Tot_Q>  (1) 
0

>  <i_epik_Tot_abs_Q>  (1) 
0

>  <i_i_glide_confnum>  (1) 
92

>  <i_i_glide_lignum>  (1) 
57

>  <i_i_glide_posenum>  (1) 
235

>  <i_i_glide_rotatable_bonds>  (1) 
6

>  <i_lp_mmshare_version>  (1) 
72125

>  <i_m_source_file_index>  (1) 
35

>  <i_f3d_flags>  (1) 
0

>  <num_sample>  (1) 
100

>  <b_lp_Chiralities_Consistent>  (1) 
1

>  <r_epik_Charging_Adjusted_Penalty>  (1) 
0

>  <r_epik_Ionization_Penalty>  (1) 
0.00017143064018834461

>  <r_epik_Ionization_Penalty_Charging>  (1) 
0

>  <r_epik_Ionization_Penalty_Neutral>  (1) 
0.00017143064018834461

>  <r_epik_State_Penalty>  (1) 
-0

>  <r_glide_ring_energy>  (1) 
1.2359945553335399

>  <r_i_docking_score>  (1) 
-6.1646455262976705

>  <r_i_glide_ecoul>  (1) 
-7.1711181450196593

>  <r_i_glide_eff_state_penalty>  (1) 
-0

>  <r_i_glide_einternal>  (1) 
19.879560060400728

>  <r_i_glide_emodel>  (1) 
-30.858535396910341

>  <r_i_glide_emodel_strain>  (1) 
1.889006446899586

>  <r_i_glide_energy>  (1) 
-30.950519477677421

>  <r_i_glide_erotb>  (1) 
0.74388536090720081

>  <r_i_glide_esite>  (1) 
-0.18735825877837964

>  <r_i_glide_evdw>  (1) 
-23.779401332657763

>  <r_i_glide_gscore>  (1) 
-6.1646455262976705

>  <r_i_glide_gscore_strain>  (1) 
0

>  <r_i_glide_hbond>  (1) 
-0.14793232378603158

>  <r_i_glide_ligand_efficiency>  (1) 
-0.24658582105190682

>  <r_i_glide_ligand_efficiency_ln>  (1) 
-1.4612057292514069

>  <r_i_glide_ligand_efficiency_sa>  (1) 
-0.72102131474755915

>  <r_i_glide_lipo>  (1) 
-2.4463636846668106

>  <r_i_glide_metal>  (1) 
-0

>  <r_i_glide_rewards>  (1) 
-1.8622388315878124

>  <r_lp_Energy>  (1) 
21.087142

>  <r_lp_tautomer_probability>  (1) 
1

>  <s_epik_cmdline>  (1) 
J2VwaWtfcHl0aG9uJywgJy1waHQnLCAnMS4wJywgJy1waCcsICc3LjQnLCAnLXRuJywgJzgnLCAnLW1hJywgJzUwMCcsICctaW1hZScsICc8aW5maWxlLm1hZT4nLCAnLW9tYWUnLCAnPG91dGZpbGUubWFlPic=

>  <s_epik_input>  (1) 
W0NIMl0xW0NIMl1bQ0gyXU9bQ0BIXTFbQ0BIXShbQ0gzXSlDKD1PKVtOSF1bQ0gyXWMyW2NIXWMoQ2wpW2NIXWMobjIpLWMzYyhbQ0gzXSlbY0hdW2NIXVtjSF1bY0hdMw==

>  <s_glide_docking_method>  (1) 
confgen

>  <s_i_glide_gridfile>  (1) 
gpcr_drd2_6luq_protein_autoprepared_prepared

>  <s_lp_Force_Field>  (1) 
S-OPLS

>  <s_lp_Variant>  (1) 
DiffSBDD_34-1

>  <s_m_source_file>  (1) 
generated_generic_title2_ligand_DiffSBDD_2026-06-23_prepared.sdf

>  <GenAI_Model>  (1) 
DiffSBDD

>  <Protein>  (1) 
generic_title2

$$$$
DiffSBDD_94
     RDKit          3D

  0  0  0  0  0  0  0  0  0  0999 V3000
M  V30 BEGIN CTAB
M  V30 COUNTS 66 70 0 0 1
M  V30 BEGIN ATOM
M  V30 1 C 9.128458 4.377626 -12.890206 0
M  V30 2 C 10.481470 5.557321 -8.267837 0
M  V30 3 O 13.775414 9.590230 -4.784936 0
M  V30 4 C 8.975047 4.122614 -11.402244 0
M  V30 5 C 12.407242 9.342531 -4.812981 0 CFG=1
M  V30 6 N 6.462919 5.451294 -18.211041 0
M  V30 7 C 5.474795 6.038401 -18.932928 0
M  V30 8 C 8.653218 5.784087 -13.199631 0 CFG=2
M  V30 9 C 5.680942 6.558470 -16.300565 0
M  V30 10 C 12.092834 8.149623 -3.941134 0 CFG=1
M  V30 11 Cl 11.249480 6.790225 -12.785097 0
M  V30 12 C 11.618790 9.536517 -3.544928 0
M  V30 13 C 5.919570 6.864475 -14.827533 0 CFG=2
M  V30 14 C 8.388721 5.249000 -8.223081 0
M  V30 15 C 9.512577 4.790510 -9.128336 0 CFG=1
M  V30 16 C 9.501147 6.795724 -12.396492 0 CFG=2
M  V30 17 C 10.756111 7.236145 -5.953586 0 CFG=1
M  V30 18 C 6.975202 7.958027 -14.784919 0
M  V30 19 C 4.537491 6.914465 -18.366011 0
M  V30 20 O 9.775413 7.453873 -10.146896 0
M  V30 21 N 6.575250 5.723136 -16.896821 0
M  V30 22 N 9.331408 6.243409 -7.702533 0 CFG=1 CHG=1
M  V30 23 C 11.293346 7.013504 -4.525781 0
M  V30 24 N 9.367333 5.226948 -10.511557 0
M  V30 25 F 13.057785 7.658278 -3.084333 0
M  V30 26 C 9.442621 6.495326 -6.264270 0
M  V30 27 C 4.639332 7.179390 -17.001582 0
M  V30 28 C 11.804695 9.602803 -6.172515 0
M  V30 29 O 9.678513 9.026493 -7.120451 0
M  V30 30 C 9.543250 6.524958 -10.920362 0
M  V30 31 C 6.274193 5.605654 -13.987161 0
M  V30 32 C 10.648207 8.663537 -6.467236 0
M  V30 33 N 7.198147 5.917498 -12.872411 0 CHG=1
M  V30 34 H 8.586317 3.627379 -13.469751 0
M  V30 35 H 10.175409 4.271813 -13.161599 0
M  V30 36 H 11.207693 6.208414 -8.753108 0
M  V30 37 H 10.997014 4.894735 -7.584999 0
M  V30 38 H 14.247127 8.852735 -5.140228 0
M  V30 39 H 9.501306 3.200754 -11.155809 0
M  V30 40 H 7.923839 3.931378 -11.187394 0
M  V30 41 H 5.440073 5.802309 -19.986372 0
M  V30 42 H 8.834694 5.939562 -14.259108 0
M  V30 43 H 12.116195 9.990716 -2.691873 0
M  V30 44 H 10.575905 9.814891 -3.662930 0
M  V30 45 H 5.008998 7.295339 -14.410871 0
M  V30 46 H 8.081576 4.434328 -7.585013 0
M  V30 47 H 7.529368 5.655873 -8.752465 0
M  V30 48 H 9.775541 3.741840 -9.021701 0
M  V30 49 H 9.152361 7.815833 -12.559618 0
M  V30 50 H 11.559610 6.828255 -6.561863 0
M  V30 51 H 6.706521 8.790168 -15.429599 0
M  V30 52 H 7.283300 8.323586 -13.807673 0
M  V30 53 H 7.840557 7.493106 -15.185008 0
M  V30 54 H 3.775359 7.375703 -18.965164 0
M  V30 55 H 10.558153 6.669636 -3.814721 0
M  V30 56 H 11.968399 6.159858 -4.599395 0
M  V30 57 H 9.428137 5.590241 -5.704764 0
M  V30 58 H 8.564139 7.065943 -5.985041 0
M  V30 59 H 3.956287 7.855913 -16.510512 0
M  V30 60 H 11.473644 10.640317 -6.228747 0
M  V30 61 H 12.562201 9.456713 -6.942891 0
M  V30 62 H 6.705557 4.792837 -14.571903 0
M  V30 63 H 5.353230 5.196530 -13.570896 0
M  V30 64 H 6.999857 5.300119 -12.098153 0
M  V30 65 H 7.004453 6.862558 -12.569980 0
M  V30 66 H 9.189689 7.112878 -8.211040 0
M  V30 END ATOM
M  V30 BEGIN BOND
M  V30 1 1 4 1
M  V30 2 1 5 3 CFG=1
M  V30 3 1 7 6
M  V30 4 1 8 1
M  V30 5 1 10 5
M  V30 6 1 12 5
M  V30 7 1 12 10
M  V30 8 1 13 9
M  V30 9 1 15 2
M  V30 10 1 15 14
M  V30 11 1 16 8
M  V30 12 1 16 11
M  V30 13 1 18 13
M  V30 14 2 19 7
M  V30 15 2 21 6
M  V30 16 1 21 9
M  V30 17 1 22 2
M  V30 18 1 22 14
M  V30 19 1 23 10
M  V30 20 1 23 17
M  V30 21 1 24 4
M  V30 22 1 24 15
M  V30 23 1 10 25 CFG=1
M  V30 24 1 26 17
M  V30 25 1 26 22
M  V30 26 2 27 9
M  V30 27 1 27 19
M  V30 28 1 28 5
M  V30 29 1 30 16
M  V30 30 2 30 20
M  V30 31 1 30 24
M  V30 32 1 31 13
M  V30 33 1 32 17
M  V30 34 1 32 28
M  V30 35 2 32 29
M  V30 36 1 33 8
M  V30 37 1 33 31
M  V30 38 1 34 1
M  V30 39 1 35 1
M  V30 40 1 36 2
M  V30 41 1 37 2
M  V30 42 1 38 3
M  V30 43 1 39 4
M  V30 44 1 40 4
M  V30 45 1 41 7
M  V30 46 1 8 42 CFG=3
M  V30 47 1 43 12
M  V30 48 1 44 12
M  V30 49 1 13 45 CFG=1
M  V30 50 1 46 14
M  V30 51 1 47 14
M  V30 52 1 15 48 CFG=3
M  V30 53 1 16 49 CFG=1
M  V30 54 1 17 50 CFG=3
M  V30 55 1 51 18
M  V30 56 1 52 18
M  V30 57 1 53 18
M  V30 58 1 54 19
M  V30 59 1 55 23
M  V30 60 1 56 23
M  V30 61 1 57 26
M  V30 62 1 58 26
M  V30 63 1 59 27
M  V30 64 1 60 28
M  V30 65 1 61 28
M  V30 66 1 62 31
M  V30 67 1 63 31
M  V30 68 1 64 33
M  V30 69 1 65 33
M  V30 70 1 22 66 CFG=3
M  V30 END BOND
M  V30 END CTAB
M  END
>  <i_epik_Tot_Q>  (1) 
2

>  <i_epik_Tot_abs_Q>  (1) 
2

>  <i_i_glide_confnum>  (1) 
62

>  <i_i_glide_lignum>  (1) 
178

>  <i_i_glide_posenum>  (1) 
91

>  <i_i_glide_rotatable_bonds>  (1) 
8

>  <i_lp_mmshare_version>  (1) 
72125

>  <i_m_source_file_index>  (1) 
95

>  <i_f3d_flags>  (1) 
0

>  <num_sample>  (1) 
100

>  <b_lp_Chiralities_Consistent>  (1) 
1

>  <r_epik_Charging_Adjusted_Penalty>  (1) 
0.95188217531897845

>  <r_epik_Ionization_Penalty>  (1) 
0.49022780398244736

>  <r_epik_Ionization_Penalty_Charging>  (1) 
0.49020808109847258

>  <r_epik_Ionization_Penalty_Neutral>  (1) 
1.9722883974789891e-05

>  <r_epik_State_Penalty>  (1) 
0.46167409422050587

>  <r_glide_ring_energy>  (1) 
1.3165782718525243

>  <r_i_docking_score>  (1) 
-6.1632565971483571

>  <r_i_glide_ecoul>  (1) 
-4.9267933229921574

>  <r_i_glide_eff_state_penalty>  (1) 
0.46167409422050587

>  <r_i_glide_einternal>  (1) 
13.705053018288659

>  <r_i_glide_emodel>  (1) 
-29.39676821254433

>  <r_i_glide_emodel_strain>  (1) 
6.1802322274533878

>  <r_i_glide_energy>  (1) 
-27.58510696938815

>  <r_i_glide_erotb>  (1) 
0.52401424714319955

>  <r_i_glide_esite>  (1) 
-0.1361211715524818

>  <r_i_glide_evdw>  (1) 
-22.658313646395992

>  <r_i_glide_gscore>  (1) 
-6.6249306913688626

>  <r_i_glide_gscore_strain>  (1) 
0.54505805686334696

>  <r_i_glide_hbond>  (1) 
0

>  <r_i_glide_ligand_efficiency>  (1) 
-0.1867653514287381

>  <r_i_glide_ligand_efficiency_ln>  (1) 
-1.3706763555710084

>  <r_i_glide_ligand_efficiency_sa>  (1) 
-0.59905627636141257

>  <r_i_glide_lipo>  (1) 
-3.9111643185319704

>  <r_i_glide_metal>  (1) 
-0

>  <r_i_glide_rewards>  (1) 
-1.7747828245223329

>  <r_lp_Energy>  (1) 
61.542628999999998

>  <r_lp_tautomer_probability>  (1) 
0.99999998000000001

>  <s_epik_cmdline>  (1) 
J2VwaWtfcHl0aG9uJywgJy1waHQnLCAnMS4wJywgJy1waCcsICc3LjQnLCAnLXRuJywgJzgnLCAnLW1hJywgJzUwMCcsICctaW1hZScsICc8aW5maWxlLm1hZT4nLCAnLW9tYWUnLCAnPG91dGZpbGUubWFlPic=

>  <s_epik_input>  (1) 
W2NIXTFbY0hdW2NIXW5uYzFbQ0BIXShbQ0gzXSlbQ0gyXVtOSF1bQ0BASF0yW0NIMl1bQ0gyXU4oQyg9TylbQ0BIXTJDbClbQ0hdM1tDSDJdTihbQ0gyXTMpW0NIMl1bQ0BASF0oQyg9TylbQ0gyXTQpW0NIMl1bQ0BdKEYpKFtDSDJdNSlbQ0BAXTQ1W09IXQ==

>  <s_glide_docking_method>  (1) 
confgen

>  <s_i_glide_gridfile>  (1) 
gpcr_drd2_6luq_protein_autoprepared_prepared

>  <s_lp_Force_Field>  (1) 
S-OPLS

>  <s_lp_Variant>  (1) 
DiffSBDD_94-1

>  <s_m_source_file>  (1) 
generated_generic_title2_ligand_DiffSBDD_2026-06-23_prepared.sdf

>  <GenAI_Model>  (1) 
DiffSBDD

>  <Protein>  (1) 
generic_title2

$$$$
DiffSBDD_64
     RDKit          3D

  0  0  0  0  0  0  0  0  0  0999 V3000
M  V30 BEGIN CTAB
M  V30 COUNTS 77 80 0 0 1
M  V30 BEGIN ATOM
M  V30 1 C 6.546232 5.929666 -17.056014 0
M  V30 2 C 10.554957 8.370265 -9.136332 0
M  V30 3 C 7.149293 6.451532 -19.459356 0 CFG=2
M  V30 4 C 6.234043 5.603282 -11.632964 0
M  V30 5 C 10.577242 7.238107 -5.511120 0
M  V30 6 C 6.537544 4.066699 -20.297145 0
M  V30 7 C 6.310664 6.552326 -12.834417 0 CFG=1
M  V30 8 O 12.571606 8.177710 -7.894096 0
M  V30 9 C 4.829909 5.915612 -19.945715 0
M  V30 10 C 8.591943 5.964372 -19.218015 0
M  V30 11 C 7.628077 5.202246 -11.114739 0
M  V30 12 C 11.113006 8.655560 -5.355461 0
M  V30 13 C 10.874389 9.274770 -6.721070 0
M  V30 14 C 3.772178 6.935337 -17.829116 0
M  V30 15 N 6.332138 6.790144 -18.260270 0 CFG=1 CHG=1
M  V30 16 C 6.110645 8.039036 -15.614263 0
M  V30 17 C 11.164972 8.158574 -7.729245 0 CFG=1
M  V30 18 C 6.264863 5.578785 -20.374207 0 CFG=1
M  V30 19 C 4.955079 6.938180 -18.810517 0 CFG=1
M  V30 20 C 7.215586 7.732253 -12.455293 0
M  V30 21 C 8.591021 7.293978 -11.957367 0
M  V30 22 C 10.835122 7.194839 -10.100439 0
M  V30 23 C 9.646042 5.328760 -8.760953 0
M  V30 24 C 9.424945 6.224418 -7.534448 0
M  V30 25 C 10.728987 6.861040 -6.998128 0 CFG=2
M  V30 26 S 6.898227 5.692991 -14.333680 0
M  V30 27 N 8.476485 6.390197 -10.785012 0 CFG=2 CHG=1
M  V30 28 C 9.776923 6.043719 -10.137265 0 CFG=1
M  V30 29 C 6.019180 6.504624 -15.713500 0 CFG=2
M  V30 30 H 7.619192 5.822408 -16.907827 0
M  V30 31 H 6.175487 4.922728 -17.234886 0
M  V30 32 H 9.485055 8.573487 -9.083446 0
M  V30 33 H 10.993424 9.275546 -9.557338 0
M  V30 34 H 7.256063 7.407158 -19.977295 0
M  V30 35 H 5.659339 4.713238 -11.892473 0
M  V30 36 H 5.685082 6.091074 -10.825007 0
M  V30 37 H 11.079142 6.530447 -4.850163 0
M  V30 38 H 9.525356 7.242270 -5.240306 0
M  V30 39 H 6.430855 3.692265 -19.279287 0
M  V30 40 H 5.838607 3.512985 -20.925369 0
M  V30 41 H 7.542037 3.823614 -20.643823 0
M  V30 42 H 5.304884 6.917494 -13.036677 0
M  V30 43 H 12.814591 7.498971 -8.501130 0
M  V30 44 H 4.318698 5.023003 -19.593301 0
M  V30 45 H 4.244120 6.311709 -20.778327 0
M  V30 46 H 9.116141 5.846916 -20.167528 0
M  V30 47 H 9.156584 6.683019 -18.624235 0
M  V30 48 H 8.632946 5.000232 -18.711655 0
M  V30 49 H 8.138766 4.577618 -11.849783 0
M  V30 50 H 7.453569 4.575765 -10.244564 0
M  V30 51 H 12.175619 8.627894 -5.137355 0
M  V30 52 H 10.633595 9.223107 -4.560116 0
M  V30 53 H 11.489514 10.164114 -6.857227 0
M  V30 54 H 9.828348 9.568408 -6.785092 0
M  V30 55 H 2.856276 7.115467 -18.383342 0
M  V30 56 H 3.656391 5.990416 -17.302257 0
M  V30 57 H 3.826544 7.737079 -17.095541 0
M  V30 58 H 5.774478 8.567570 -16.502830 0
M  V30 59 H 5.465886 8.390319 -14.812674 0
M  V30 60 H 7.120459 8.381745 -15.416708 0
M  V30 61 H 6.417475 5.889147 -21.409369 0
M  V30 62 H 4.952174 7.925105 -19.276667 0
M  V30 63 H 7.375553 8.390130 -13.298702 0
M  V30 64 H 6.727593 8.332216 -11.684625 0
M  V30 65 H 9.109507 8.215012 -11.697913 0
M  V30 66 H 9.159629 6.807493 -12.751206 0
M  V30 67 H 11.805669 6.790419 -9.832268 0
M  V30 68 H 11.028899 7.578320 -11.100359 0
M  V30 69 H 10.548101 4.750819 -8.571231 0
M  V30 70 H 8.870504 4.570076 -8.764185 0
M  V30 71 H 9.018609 5.590431 -6.750715 0
M  V30 72 H 8.643219 6.964031 -7.708907 0
M  V30 73 H 11.527000 6.120083 -7.063375 0
M  V30 74 H 10.175377 5.304518 -10.831862 0
M  V30 75 H 4.976274 6.226392 -15.584865 0
M  V30 76 H 7.935459 6.940501 -10.101572 0
M  V30 77 H 6.629006 7.706743 -17.959486 0
M  V30 END ATOM
M  V30 BEGIN BOND
M  V30 1 1 7 4
M  V30 2 1 10 3
M  V30 3 1 11 4
M  V30 4 1 12 5
M  V30 5 1 13 12
M  V30 6 1 15 1
M  V30 7 1 15 3
M  V30 8 1 17 2
M  V30 9 1 17 8 CFG=3
M  V30 10 1 17 13
M  V30 11 1 18 3
M  V30 12 1 18 6
M  V30 13 1 18 9
M  V30 14 1 19 9
M  V30 15 1 19 14
M  V30 16 1 19 15
M  V30 17 1 20 7
M  V30 18 1 21 20
M  V30 19 1 22 2
M  V30 20 1 24 23
M  V30 21 1 25 5
M  V30 22 1 25 17
M  V30 23 1 25 24
M  V30 24 1 26 7
M  V30 25 1 27 11
M  V30 26 1 27 21
M  V30 27 1 28 22
M  V30 28 1 28 23
M  V30 29 1 28 27
M  V30 30 1 29 1
M  V30 31 1 29 16
M  V30 32 1 29 26
M  V30 33 1 30 1
M  V30 34 1 31 1
M  V30 35 1 32 2
M  V30 36 1 33 2
M  V30 37 1 3 34 CFG=3
M  V30 38 1 35 4
M  V30 39 1 36 4
M  V30 40 1 37 5
M  V30 41 1 38 5
M  V30 42 1 39 6
M  V30 43 1 40 6
M  V30 44 1 41 6
M  V30 45 1 7 42 CFG=3
M  V30 46 1 43 8
M  V30 47 1 44 9
M  V30 48 1 45 9
M  V30 49 1 46 10
M  V30 50 1 47 10
M  V30 51 1 48 10
M  V30 52 1 49 11
M  V30 53 1 50 11
M  V30 54 1 51 12
M  V30 55 1 52 12
M  V30 56 1 53 13
M  V30 57 1 54 13
M  V30 58 1 55 14
M  V30 59 1 56 14
M  V30 60 1 57 14
M  V30 61 1 58 16
M  V30 62 1 59 16
M  V30 63 1 60 16
M  V30 64 1 18 61 CFG=3
M  V30 65 1 19 62 CFG=3
M  V30 66 1 63 20
M  V30 67 1 64 20
M  V30 68 1 65 21
M  V30 69 1 66 21
M  V30 70 1 67 22
M  V30 71 1 68 22
M  V30 72 1 69 23
M  V30 73 1 70 23
M  V30 74 1 71 24
M  V30 75 1 72 24
M  V30 76 1 25 73 CFG=1
M  V30 77 1 28 74 CFG=3
M  V30 78 1 29 75 CFG=1
M  V30 79 1 27 76 CFG=1
M  V30 80 1 15 77 CFG=1
M  V30 END BOND
M  V30 END CTAB
M  END
>  <i_epik_Tot_Q>  (1) 
2

>  <i_epik_Tot_abs_Q>  (1) 
2

>  <i_i_glide_confnum>  (1) 
83

>  <i_i_glide_lignum>  (1) 
102

>  <i_i_glide_posenum>  (1) 
126

>  <i_i_glide_rotatable_bonds>  (1) 
6

>  <i_lp_mmshare_version>  (1) 
72125

>  <i_m_source_file_index>  (1) 
65

>  <i_f3d_flags>  (1) 
0

>  <num_sample>  (1) 
100

>  <b_lp_Chiralities_Consistent>  (1) 
1

>  <r_epik_Charging_Adjusted_Penalty>  (1) 
0.010385271147369776

>  <r_epik_Ionization_Penalty>  (1) 
0.010385491156522124

>  <r_epik_Ionization_Penalty_Charging>  (1) 
0.010385271147369776

>  <r_epik_Ionization_Penalty_Neutral>  (1) 
2.2000915234807092e-07

>  <r_epik_State_Penalty>  (1) 
-0

>  <r_glide_ring_energy>  (1) 
0

>  <r_i_docking_score>  (1) 
-6.1625223090622123

>  <r_i_glide_ecoul>  (1) 
-5.9968392057625515

>  <r_i_glide_eff_state_penalty>  (1) 
-0

>  <r_i_glide_einternal>  (1) 
5.531998503747241

>  <r_i_glide_emodel>  (1) 
-41.125523709837758

>  <r_i_glide_emodel_strain>  (1) 
0.97464366791368207

>  <r_i_glide_energy>  (1) 
-35.387160114428184

>  <r_i_glide_erotb>  (1) 
0.5496323063178965

>  <r_i_glide_esite>  (1) 
-0.10000000000000001

>  <r_i_glide_evdw>  (1) 
-29.390320908665629

>  <r_i_glide_gscore>  (1) 
-6.1625223090622123

>  <r_i_glide_gscore_strain>  (1) 
0

>  <r_i_glide_hbond>  (1) 
-0.1948485106154631

>  <r_i_glide_ligand_efficiency>  (1) 
-0.21250076927800732

>  <r_i_glide_ligand_efficiency_ln>  (1) 
-1.4110613406926678

>  <r_i_glide_ligand_efficiency_sa>  (1) 
-0.65286968892400821

>  <r_i_glide_lipo>  (1) 
-2.6351149284669804

>  <r_i_glide_metal>  (1) 
-0

>  <r_i_glide_rewards>  (1) 
-1.4131492500000007

>  <r_lp_Energy>  (1) 
54.772919999999999

>  <r_lp_tautomer_probability>  (1) 
1

>  <s_epik_cmdline>  (1) 
J2VwaWtfcHl0aG9uJywgJy1waHQnLCAnMS4wJywgJy1waCcsICc3LjQnLCAnLXRuJywgJzgnLCAnLW1hJywgJzUwMCcsICctaW1hZScsICc8aW5maWxlLm1hZT4nLCAnLW9tYWUnLCAnPG91dGZpbGUubWFlPic=

>  <s_epik_input>  (1) 
W0NIM11bQ0BIXTFbQ0gyXVtDQEBIXShbQ0gzXSlOKFtDQEhdMVtDSDNdKVtDSDJdW0NASF0oW0NIM10pU1tDSF0yW0NIMl1bQ0gyXU4oW0NIMl1bQ0gyXTIpW0NAQEhdKFtDSDJdW0NIMl0zKVtDSDJdW0NIMl1bQ0BASF0oW0NAQF0zNFtPSF0pW0NIMl1bQ0gyXVtDSDJdNA==

>  <s_glide_docking_method>  (1) 
confgen

>  <s_i_glide_gridfile>  (1) 
gpcr_drd2_6luq_protein_autoprepared_prepared

>  <s_lp_Force_Field>  (1) 
S-OPLS

>  <s_lp_Variant>  (1) 
DiffSBDD_64-1

>  <s_m_source_file>  (1) 
generated_generic_title2_ligand_DiffSBDD_2026-06-23_prepared.sdf

>  <GenAI_Model>  (1) 
DiffSBDD

>  <Protein>  (1) 
generic_title2

$$$$
DiffSBDD_52
     RDKit          3D

  0  0  0  0  0  0  0  0  0  0999 V3000
M  V30 BEGIN CTAB
M  V30 COUNTS 50 53 0 0 1
M  V30 BEGIN ATOM
M  V30 1 C 11.863461 9.264775 -4.478599 0
M  V30 2 F 12.086987 7.632240 -2.657005 0
M  V30 3 C 8.236722 5.170129 -11.290921 0 CFG=1
M  V30 4 C 6.534766 7.160991 -12.675018 0
M  V30 5 C 8.039051 7.149237 -12.556491 0 CFG=2
M  V30 6 C 11.399868 6.798819 -4.696015 0
M  V30 7 C 10.678978 7.608279 -9.006685 0
M  V30 8 C 6.111591 4.961468 -13.959985 0
M  V30 9 C 11.775406 7.847883 -3.946522 0
M  V30 10 N 8.175459 6.635771 -11.185028 0 CFG=2 CHG=1
M  V30 11 C 11.027570 8.333378 -6.734086 0 CFG=2
M  V30 12 O 8.546857 4.790227 -10.080535 0 CHG=-1
M  V30 13 C 5.927862 3.501402 -13.573433 0
M  V30 14 O 11.475157 8.331433 -8.081490 0
M  V30 15 C 11.958002 9.332574 -6.009869 0
M  V30 16 C 6.027303 5.693943 -12.619350 0 CFG=1
M  V30 17 C 6.650877 3.348406 -12.233742 0
M  V30 18 C 11.299372 7.875623 -10.384584 0
M  V30 19 C 11.050313 6.892674 -6.165416 0
M  V30 20 C 9.073889 7.681438 -11.593174 0 CFG=1
M  V30 21 C 10.533157 7.266779 -11.575375 0
M  V30 22 C 6.759342 4.752438 -11.604492 0 CFG=1
M  V30 23 H 10.975478 9.799939 -4.143046 0
M  V30 24 H 12.719329 9.764985 -4.025223 0
M  V30 25 H 8.856715 4.865087 -12.135883 0
M  V30 26 H 6.088192 7.775087 -11.889823 0
M  V30 27 H 6.249504 7.590211 -13.633659 0
M  V30 28 H 8.514833 6.576036 -13.349861 0
M  V30 29 H 11.356620 5.815255 -4.251981 0
M  V30 30 H 10.674787 6.538330 -8.794841 0
M  V30 31 H 9.649125 7.964124 -8.954971 0
M  V30 32 H 5.362173 5.303315 -14.673744 0
M  V30 33 H 7.091369 5.095547 -14.418469 0
M  V30 34 H 10.007987 8.719445 -6.679389 0
M  V30 35 H 4.866177 3.299108 -13.433262 0
M  V30 36 H 6.304065 2.813457 -14.331113 0
M  V30 37 H 11.721047 10.344953 -6.339116 0
M  V30 38 H 12.994469 9.190122 -6.312785 0
M  V30 39 H 4.975455 5.721650 -12.338178 0
M  V30 40 H 6.104647 2.668177 -11.584928 0
M  V30 41 H 7.638793 2.912819 -12.388419 0
M  V30 42 H 11.375393 8.954297 -10.495184 0
M  V30 43 H 12.325729 7.511666 -10.389890 0
M  V30 44 H 11.798427 6.297410 -6.690102 0
M  V30 45 H 10.090290 6.404114 -6.338513 0
M  V30 46 H 8.827251 8.621593 -11.103411 0
M  V30 47 H 10.981724 7.590204 -12.512207 0
M  V30 48 H 10.627337 6.183733 -11.584983 0
M  V30 49 H 6.181093 4.779492 -10.677283 0
M  V30 50 H 7.493060 7.004229 -10.509317 0
M  V30 END ATOM
M  V30 BEGIN BOND
M  V30 1 1 5 4
M  V30 2 1 9 1
M  V30 3 1 9 2
M  V30 4 2 9 6
M  V30 5 1 10 3
M  V30 6 1 10 5
M  V30 7 1 12 3
M  V30 8 1 13 8
M  V30 9 1 14 7
M  V30 10 1 14 11
M  V30 11 1 15 1
M  V30 12 1 15 11
M  V30 13 1 16 4
M  V30 14 1 16 8
M  V30 15 1 17 13
M  V30 16 1 18 7
M  V30 17 1 19 6
M  V30 18 1 19 11
M  V30 19 1 20 5
M  V30 20 1 20 10
M  V30 21 1 21 18
M  V30 22 1 21 20
M  V30 23 1 22 3
M  V30 24 1 22 16
M  V30 25 1 22 17
M  V30 26 1 23 1
M  V30 27 1 24 1
M  V30 28 1 3 25 CFG=3
M  V30 29 1 26 4
M  V30 30 1 27 4
M  V30 31 1 5 28 CFG=3
M  V30 32 1 29 6
M  V30 33 1 30 7
M  V30 34 1 31 7
M  V30 35 1 32 8
M  V30 36 1 33 8
M  V30 37 1 11 34 CFG=3
M  V30 38 1 35 13
M  V30 39 1 36 13
M  V30 40 1 37 15
M  V30 41 1 38 15
M  V30 42 1 16 39 CFG=1
M  V30 43 1 40 17
M  V30 44 1 41 17
M  V30 45 1 42 18
M  V30 46 1 43 18
M  V30 47 1 44 19
M  V30 48 1 45 19
M  V30 49 1 20 46 CFG=1
M  V30 50 1 47 21
M  V30 51 1 48 21
M  V30 52 1 22 49 CFG=1
M  V30 53 1 10 50 CFG=1
M  V30 END BOND
M  V30 END CTAB
M  END
>  <i_epik_Tot_Q>  (1) 
0

>  <i_epik_Tot_abs_Q>  (1) 
2

>  <i_i_glide_confnum>  (1) 
33

>  <i_i_glide_lignum>  (1) 
83

>  <i_i_glide_posenum>  (1) 
127

>  <i_i_glide_rotatable_bonds>  (1) 
5

>  <i_lp_mmshare_version>  (1) 
72125

>  <i_m_source_file_index>  (1) 
53

>  <i_f3d_flags>  (1) 
0

>  <num_sample>  (1) 
100

>  <b_lp_Chiralities_Consistent>  (1) 
1

>  <r_epik_Charging_Adjusted_Penalty>  (1) 
0.66076975529779935

>  <r_epik_Ionization_Penalty>  (1) 
0.32551799850713803

>  <r_epik_Ionization_Penalty_Charging>  (1) 
0.32551799850601437

>  <r_epik_Ionization_Penalty_Neutral>  (1) 
1.1236391675704673e-12

>  <r_epik_State_Penalty>  (1) 
0.33525175679178498

>  <r_glide_ring_energy>  (1) 
0

>  <r_i_docking_score>  (1) 
-6.1612026652375009

>  <r_i_glide_ecoul>  (1) 
-5.3594425136021009

>  <r_i_glide_eff_state_penalty>  (1) 
0.33525175679178498

>  <r_i_glide_einternal>  (1) 
5.8296579528887378

>  <r_i_glide_emodel>  (1) 
-40.829228672005385

>  <r_i_glide_emodel_strain>  (1) 
0.18022344647998523

>  <r_i_glide_energy>  (1) 
-30.895400215625902

>  <r_i_glide_erotb>  (1) 
0.58016400484968

>  <r_i_glide_esite>  (1) 
-0.11217531414382396

>  <r_i_glide_evdw>  (1) 
-25.535957702023801

>  <r_i_glide_gscore>  (1) 
-6.4964544220292861

>  <r_i_glide_gscore_strain>  (1) 
0

>  <r_i_glide_hbond>  (1) 
-0.17876145277892291

>  <r_i_glide_ligand_efficiency>  (1) 
-0.28005466660170458

>  <r_i_glide_ligand_efficiency_ln>  (1) 
-1.5060226667117083

>  <r_i_glide_ligand_efficiency_sa>  (1) 
-0.78472419055155795

>  <r_i_glide_lipo>  (1) 
-2.1814407889643332

>  <r_i_glide_metal>  (1) 
-0

>  <r_i_glide_rewards>  (1) 
-2.5235266088503812

>  <r_lp_Energy>  (1) 
38.746100999999996

>  <s_epik_Chemistry_Notes>  (1) 
This compound contains an acetal/aminal-like group ( X-CH(R)-Y where X, Y are N, S, or O) that may be acid/base labile, releasing an aldehyde.

>  <s_epik_cmdline>  (1) 
J2VwaWtfcHl0aG9uJywgJy1waHQnLCAnMS4wJywgJy1waCcsICc3LjQnLCAnLXRuJywgJzgnLCAnLW1hJywgJzUwMCcsICctaW1hZScsICc8aW5maWxlLm1hZT4nLCAnLW9tYWUnLCAnPG91dGZpbGUubWFlPic=

>  <s_epik_input>  (1) 
RkMxPVtDSF1bQ0gyXVtDQEBIXShbQ0gyXVtDSDJdMSlPW0NIMl1bQ0gyXVtDSDJdW0NAQEhdMk4oW0NASF0yMylbQ0BASF0oW09IXSlbQ0BIXTRbQ0BASF0oW0NIMl0zKVtDSDJdW0NIMl1bQ0gyXTQ=

>  <s_glide_docking_method>  (1) 
confgen

>  <s_i_glide_gridfile>  (1) 
gpcr_drd2_6luq_protein_autoprepared_prepared

>  <s_lp_Force_Field>  (1) 
S-OPLS

>  <s_lp_Variant>  (1) 
DiffSBDD_52-2

>  <s_m_source_file>  (1) 
generated_generic_title2_ligand_DiffSBDD_2026-06-23_prepared.sdf

>  <GenAI_Model>  (1) 
DiffSBDD

>  <Protein>  (1) 
generic_title2

$$$$
DiffSBDD_10
     RDKit          3D

  0  0  0  0  0  0  0  0  0  0999 V3000
M  V30 BEGIN CTAB
M  V30 COUNTS 55 59 0 0 1
M  V30 BEGIN ATOM
M  V30 1 S 9.581537 6.616462 -11.955471 0
M  V30 2 C 10.325612 7.892173 -9.574330 0
M  V30 3 C 7.891874 4.539364 -11.676479 0 CFG=1
M  V30 4 C 10.734403 7.410481 -6.250927 0
M  V30 5 C 5.379456 5.242421 -12.173245 0
M  V30 6 C 11.375410 7.626232 -4.873184 0
M  V30 7 O 8.543784 7.240812 -12.785025 0
M  V30 8 C 5.447785 4.253111 -13.358334 0
M  V30 9 C 12.539373 9.046623 -3.246087 0
M  V30 10 C 6.604356 2.017921 -14.094930 0
M  V30 11 C 7.941953 1.418924 -13.636882 0
M  V30 12 N 9.219771 5.115913 -11.473168 0 CHG=-1
M  V30 13 C 7.123609 4.458452 -10.376482 0
M  V30 14 C 6.388736 3.084408 -13.046670 0 CFG=1
M  V30 15 O 10.989719 6.790226 -12.344672 0
M  V30 16 C 11.947846 8.875042 -4.512172 0
M  V30 17 N 9.375410 7.330731 -10.413330 0
M  V30 18 C 6.694915 5.458273 -11.430320 0 CFG=1
M  V30 19 C 11.416226 6.564981 -3.929385 0
M  V30 20 C 10.981081 6.054668 -6.890731 0
M  V30 21 C 12.566089 7.990093 -2.326001 0
M  V30 22 O 11.536741 7.821175 -9.786442 0
M  V30 23 O 8.558089 2.389841 -12.785025 0
M  V30 24 C 10.649414 8.688198 -7.108117 0
M  V30 25 C 12.006541 6.751689 -2.665628 0
M  V30 26 C 9.757244 8.619982 -8.368532 0
M  V30 27 C 9.613264 6.390228 -6.340330 0
M  V30 28 C 7.808336 3.591226 -12.858593 0 CFG=2
M  V30 29 H 4.653781 4.892467 -11.445895 0
M  V30 30 H 5.019799 6.208924 -12.526352 0
M  V30 31 H 4.446559 3.888683 -13.585024 0
M  V30 32 H 5.799818 4.776267 -14.248557 0
M  V30 33 H 12.975387 9.990228 -2.982169 0
M  V30 34 H 5.802057 1.279968 -14.129238 0
M  V30 35 H 6.707941 2.466491 -15.084000 0
M  V30 36 H 7.790766 0.501972 -13.066163 0
M  V30 37 H 8.575415 1.182701 -14.490561 0
M  V30 38 H 6.455606 3.620265 -10.195316 0
M  V30 39 H 7.584089 4.867432 -9.478401 0
M  V30 40 H 6.055190 2.582600 -12.139126 0
M  V30 41 H 11.940607 9.699733 -5.205814 0
M  V30 42 H 8.377958 7.436745 -10.171128 0
M  V30 43 H 6.862549 6.498898 -11.185025 0
M  V30 44 H 10.993665 5.603926 -4.177014 0
M  V30 45 H 11.025198 5.941949 -7.967426 0
M  V30 46 H 11.641581 5.375487 -6.359244 0
M  V30 47 H 13.019229 8.130789 -1.355989 0
M  V30 48 H 10.215041 9.472116 -6.488629 0
M  V30 49 H 11.656635 9.011069 -7.375677 0
M  V30 50 H 12.029291 5.936830 -1.956726 0
M  V30 51 H 8.773876 8.246759 -8.105256 0
M  V30 52 H 9.538268 9.590227 -8.785028 0
M  V30 53 H 9.271758 5.990227 -5.395825 0
M  V30 54 H 8.829288 6.438996 -7.089719 0
M  V30 55 H 8.131134 4.132138 -13.750970 0
M  V30 END ATOM
M  V30 BEGIN BOND
M  V30 1 1 6 4
M  V30 2 2 7 1
M  V30 3 1 8 5
M  V30 4 1 11 10
M  V30 5 1 12 1
M  V30 6 1 3 12 CFG=1
M  V30 7 1 13 3
M  V30 8 1 14 8
M  V30 9 1 14 10
M  V30 10 2 15 1
M  V30 11 2 16 6
M  V30 12 1 16 9
M  V30 13 1 17 1
M  V30 14 1 17 2
M  V30 15 1 18 3
M  V30 16 1 18 5
M  V30 17 1 18 13
M  V30 18 1 19 6
M  V30 19 1 20 4
M  V30 20 2 21 9
M  V30 21 2 22 2
M  V30 22 1 23 11
M  V30 23 1 24 4
M  V30 24 2 25 19
M  V30 25 1 25 21
M  V30 26 1 26 2
M  V30 27 1 26 24
M  V30 28 1 27 4
M  V30 29 1 27 20
M  V30 30 1 28 3
M  V30 31 1 28 14
M  V30 32 1 28 23
M  V30 33 1 29 5
M  V30 34 1 30 5
M  V30 35 1 31 8
M  V30 36 1 32 8
M  V30 37 1 33 9
M  V30 38 1 34 10
M  V30 39 1 35 10
M  V30 40 1 36 11
M  V30 41 1 37 11
M  V30 42 1 38 13
M  V30 43 1 39 13
M  V30 44 1 14 40 CFG=1
M  V30 45 1 41 16
M  V30 46 1 42 17
M  V30 47 1 18 43 CFG=1
M  V30 48 1 44 19
M  V30 49 1 45 20
M  V30 50 1 46 20
M  V30 51 1 47 21
M  V30 52 1 48 24
M  V30 53 1 49 24
M  V30 54 1 50 25
M  V30 55 1 51 26
M  V30 56 1 52 26
M  V30 57 1 53 27
M  V30 58 1 54 27
M  V30 59 1 28 55 CFG=3
M  V30 END BOND
M  V30 END CTAB
M  END
>  <i_epik_Tot_Q>  (1) 
-1

>  <i_epik_Tot_abs_Q>  (1) 
1

>  <i_i_glide_confnum>  (1) 
302

>  <i_i_glide_lignum>  (1) 
19

>  <i_i_glide_posenum>  (1) 
315

>  <i_i_glide_rotatable_bonds>  (1) 
8

>  <i_lp_mmshare_version>  (1) 
72125

>  <i_m_source_file_index>  (1) 
11

>  <i_f3d_flags>  (1) 
0

>  <num_sample>  (1) 
100

>  <b_lp_Chiralities_Consistent>  (1) 
1

>  <r_epik_Charging_Adjusted_Penalty>  (1) 
0.69645471960127314

>  <r_epik_Ionization_Penalty>  (1) 
0.13608129319335216

>  <r_epik_Ionization_Penalty_Charging>  (1) 
0.023519382127027082

>  <r_epik_Ionization_Penalty_Neutral>  (1) 
0.11256191106632508

>  <r_epik_State_Penalty>  (1) 
0.67293533747424605

>  <r_glide_ring_energy>  (1) 
0

>  <r_i_docking_score>  (1) 
-6.1605716474737102

>  <r_i_glide_ecoul>  (1) 
-4.3041929984832175

>  <r_i_glide_eff_state_penalty>  (1) 
0.67293533747424605

>  <r_i_glide_einternal>  (1) 
12.429943596771535

>  <r_i_glide_emodel>  (1) 
-47.188293548360186

>  <r_i_glide_emodel_strain>  (1) 
1.7401114130937145

>  <r_i_glide_energy>  (1) 
-40.835669511913359

>  <r_i_glide_erotb>  (1) 
0.84406116630868921

>  <r_i_glide_esite>  (1) 
-0.17156801266506838

>  <r_i_glide_evdw>  (1) 
-36.531476513430142

>  <r_i_glide_gscore>  (1) 
-6.8335069849479559

>  <r_i_glide_gscore_strain>  (1) 
0

>  <r_i_glide_hbond>  (1) 
-0.16

>  <r_i_glide_ligand_efficiency>  (1) 
-0.22002041598120395

>  <r_i_glide_ligand_efficiency_ln>  (1) 
-1.4220408184803266

>  <r_i_glide_ligand_efficiency_sa>  (1) 
-0.66811156875601974

>  <r_i_glide_lipo>  (1) 
-3.2996745109122503

>  <r_i_glide_metal>  (1) 
-0

>  <r_i_glide_rewards>  (1) 
-1.574122852235337

>  <r_lp_Energy>  (1) 
21.120514999999997

>  <s_epik_cmdline>  (1) 
J2VwaWtfcHl0aG9uJywgJy1waHQnLCAnMS4wJywgJy1waCcsICc3LjQnLCAnLXRuJywgJzgnLCAnLW1hJywgJzUwMCcsICctaW1hZScsICc8aW5maWxlLm1hZT4nLCAnLW9tYWUnLCAnPG91dGZpbGUubWFlPic=

>  <s_epik_input>  (1) 
W0NIMl0xW0NIMl1PW0NASF0yW0NASF0xW0NIMl1bQ0gyXVtDQEBIXShbQ0gyXTMpW0NAXTIzW05IXVMoPU8pKD1PKVtOSF1DKD1PKVtDSDJdW0NIMl1DNChbQ0gyXVtDSDJdNCljNVtjSF1bY0hdW2NIXVtjSF1bY0hdNQ==

>  <s_glide_docking_method>  (1) 
confgen

>  <s_i_glide_gridfile>  (1) 
gpcr_drd2_6luq_protein_autoprepared_prepared

>  <s_lp_Force_Field>  (1) 
S-OPLS

>  <s_lp_Variant>  (1) 
DiffSBDD_10-2

>  <s_m_source_file>  (1) 
generated_generic_title2_ligand_DiffSBDD_2026-06-23_prepared.sdf

>  <GenAI_Model>  (1) 
DiffSBDD

>  <Protein>  (1) 
generic_title2

$$$$
DiffSBDD_40
     RDKit          3D

  0  0  0  0  0  0  0  0  0  0999 V3000
M  V30 BEGIN CTAB
M  V30 COUNTS 89 95 0 0 1
M  V30 BEGIN ATOM
M  V30 1 N 13.841337 7.070615 -17.705505 0
M  V30 2 C 15.786445 5.543652 -18.135867 0
M  V30 3 C 7.411861 3.611013 -13.760334 0
M  V30 4 C 11.176125 7.184785 -9.320767 0
M  V30 5 C 7.633551 3.493769 -15.169041 0
M  V30 6 C 14.250383 5.638174 -17.680855 0 CFG=2
M  V30 7 C 7.032156 1.123458 -15.061205 0
M  V30 8 C 8.992779 5.986322 -11.084632 0 CFG=1
M  V30 9 O 11.621662 6.057027 -19.155899 0
M  V30 10 C 7.632180 4.942695 -12.992201 0 CFG=1
M  V30 11 C 8.058298 4.682795 -16.009538 0 CFG=1
M  V30 12 N 11.585385 7.670884 -20.671864 0
M  V30 13 C 13.275023 4.529108 -18.067551 0 CFG=1
M  V30 14 C 7.182301 6.790664 -14.825769 0
M  V30 15 N 7.775446 5.190224 -7.584753 0 CHG=1
M  V30 16 C 11.890811 6.350592 -20.439296 0
M  V30 17 O 9.976291 5.593162 -13.332150 0
M  V30 18 C 15.920995 6.957361 -18.591137 0
M  V30 19 C 10.083587 6.842135 -11.497815 0
M  V30 20 C 10.726709 4.369918 -17.647263 0
M  V30 21 C 14.784570 9.063013 -18.753756 0
M  V30 22 C 14.845632 7.723117 -18.348976 0
M  V30 23 N 8.944695 5.105278 -12.327006 0
M  V30 24 C 10.585959 7.896288 -10.522529 0
M  V30 25 O 12.340014 5.550200 -21.255930 0
M  V30 26 C 6.981189 2.477802 -13.040741 0
M  V30 27 N 9.348833 6.873660 -7.949365 0
M  V30 28 C 9.502485 5.199740 -9.886278 0
M  V30 29 C 7.443974 2.242734 -15.802837 0
M  V30 30 C 6.887119 6.233690 -13.436943 0 CFG=1
M  V30 31 C 6.795857 1.241768 -13.685467 0
M  V30 32 C 17.052753 7.467718 -19.247970 0
M  V30 33 C 13.659081 4.750043 -16.617589 0
M  V30 34 C 17.042165 8.820167 -19.667081 0
M  V30 35 C 8.711858 6.095996 -6.924201 0
M  V30 36 C 5.379925 6.143217 -13.232957 0
M  V30 37 C 7.041112 5.827168 -16.000635 0
M  V30 38 C 11.858307 4.750616 -18.624307 0 CFG=1
M  V30 39 C 15.896137 9.621416 -19.421960 0
M  V30 40 O 9.386882 5.089856 -15.744051 0
M  V30 41 C 10.565514 6.592641 -12.654287 0
M  V30 42 C 10.151319 5.551474 -16.843620 0
M  V30 43 C 10.231434 6.086626 -8.786162 0 CFG=1
M  V30 44 H 12.884888 7.294800 -17.943753 0
M  V30 45 H 16.442156 5.317795 -17.295600 0
M  V30 46 H 15.927106 4.833073 -18.949442 0
M  V30 47 H 12.142270 6.790256 -9.614368 0
M  V30 48 H 11.433221 7.912139 -8.546931 0
M  V30 49 H 6.891723 0.171994 -15.553253 0
M  V30 50 H 8.085565 6.547128 -10.871031 0
M  V30 51 H 7.067162 4.712386 -12.088578 0
M  V30 52 H 8.038098 4.307768 -17.032194 0
M  V30 53 H 11.223841 8.221216 -19.909702 0
M  V30 54 H 11.734343 8.041907 -21.598058 0
M  V30 55 H 13.732969 3.642214 -18.503166 0
M  V30 56 H 8.175394 7.188993 -14.785319 0
M  V30 57 H 6.553005 7.660818 -15.017437 0
M  V30 58 H 7.230133 4.674193 -6.910176 0
M  V30 59 H 7.160548 5.794349 -8.121121 0
M  V30 60 H 11.075576 3.591571 -16.967971 0
M  V30 61 H 9.919081 3.916603 -18.221589 0
M  V30 62 H 13.905480 9.656159 -18.559181 0
M  V30 63 H 11.375371 8.564341 -10.826240 0
M  V30 64 H 9.742314 8.521603 -10.226311 0
M  V30 65 H 6.792073 2.560060 -11.990673 0
M  V30 66 H 8.662570 7.386182 -8.504996 0
M  V30 67 H 10.175439 4.444961 -10.263934 0
M  V30 68 H 8.711282 4.534372 -9.576022 0
M  V30 69 H 7.616184 2.144736 -16.864608 0
M  V30 70 H 7.190138 7.030216 -12.759276 0
M  V30 71 H 6.471952 0.381021 -13.118897 0
M  V30 72 H 17.910858 6.838845 -19.437048 0
M  V30 73 H 12.928364 5.190123 -15.943272 0
M  V30 74 H 14.313617 4.012113 -16.159793 0
M  V30 75 H 17.896369 9.238308 -20.176844 0
M  V30 76 H 9.465564 5.590534 -6.329175 0
M  V30 77 H 8.175197 6.774145 -6.267838 0
M  V30 78 H 4.914273 5.435688 -13.917258 0
M  V30 79 H 5.121317 5.870553 -12.209805 0
M  V30 80 H 4.975649 7.135632 -13.414203 0
M  V30 81 H 7.179621 6.395469 -16.918431 0
M  V30 82 H 6.026157 5.438824 -16.064069 0
M  V30 83 H 11.767389 4.035078 -19.443431 0
M  V30 84 H 15.872979 10.651647 -19.745590 0
M  V30 85 H 11.385504 7.073975 -13.166292 0
M  V30 86 H 9.562025 6.203516 -17.486911 0
M  V30 87 H 10.958891 6.158779 -16.437937 0
M  V30 88 H 10.813376 5.441986 -8.128689 0
M  V30 89 H 8.264012 4.561100 -8.201430 0
M  V30 END ATOM
M  V30 BEGIN BOND
M  V30 1 1 5 3
M  V30 2 1 6 1 CFG=1
M  V30 3 1 6 2
M  V30 4 1 10 3
M  V30 5 1 11 5
M  V30 6 1 13 6
M  V30 7 1 16 9
M  V30 8 1 16 12
M  V30 9 1 18 2
M  V30 10 1 19 8
M  V30 11 1 22 1
M  V30 12 1 22 18
M  V30 13 2 22 21
M  V30 14 1 23 8
M  V30 15 1 23 10
M  V30 16 1 23 17
M  V30 17 1 24 4
M  V30 18 1 24 19
M  V30 19 2 25 16
M  V30 20 2 26 3
M  V30 21 1 28 8
M  V30 22 2 29 5
M  V30 23 1 29 7
M  V30 24 1 30 10
M  V30 25 1 30 14
M  V30 26 2 31 7
M  V30 27 1 31 26
M  V30 28 2 32 18
M  V30 29 1 33 6
M  V30 30 1 33 13
M  V30 31 1 34 32
M  V30 32 1 35 15
M  V30 33 1 35 27
M  V30 34 1 36 30
M  V30 35 1 37 11
M  V30 36 1 37 14
M  V30 37 1 38 9
M  V30 38 1 38 13
M  V30 39 1 38 20
M  V30 40 1 39 21
M  V30 41 2 39 34
M  V30 42 1 40 11
M  V30 43 1 41 17
M  V30 44 2 41 19
M  V30 45 1 42 20
M  V30 46 1 42 40
M  V30 47 1 43 4
M  V30 48 1 43 27
M  V30 49 1 43 28
M  V30 50 1 44 1
M  V30 51 1 45 2
M  V30 52 1 46 2
M  V30 53 1 47 4
M  V30 54 1 48 4
M  V30 55 1 49 7
M  V30 56 1 8 50 CFG=1
M  V30 57 1 10 51 CFG=1
M  V30 58 1 11 52 CFG=3
M  V30 59 1 53 12
M  V30 60 1 54 12
M  V30 61 1 13 55 CFG=3
M  V30 62 1 56 14
M  V30 63 1 57 14
M  V30 64 1 58 15
M  V30 65 1 59 15
M  V30 66 1 60 20
M  V30 67 1 61 20
M  V30 68 1 62 21
M  V30 69 1 63 24
M  V30 70 1 64 24
M  V30 71 1 65 26
M  V30 72 1 66 27
M  V30 73 1 67 28
M  V30 74 1 68 28
M  V30 75 1 69 29
M  V30 76 1 30 70 CFG=1
M  V30 77 1 71 31
M  V30 78 1 72 32
M  V30 79 1 73 33
M  V30 80 1 74 33
M  V30 81 1 75 34
M  V30 82 1 76 35
M  V30 83 1 77 35
M  V30 84 1 78 36
M  V30 85 1 79 36
M  V30 86 1 80 36
M  V30 87 1 81 37
M  V30 88 1 82 37
M  V30 89 1 38 83 CFG=3
M  V30 90 1 84 39
M  V30 91 1 85 41
M  V30 92 1 86 42
M  V30 93 1 87 42
M  V30 94 1 43 88 CFG=1
M  V30 95 1 89 15
M  V30 END BOND
M  V30 END CTAB
M  END
>  <i_epik_Tot_Q>  (1) 
1

>  <i_epik_Tot_abs_Q>  (1) 
1

>  <i_i_glide_confnum>  (1) 
66

>  <i_i_glide_lignum>  (1) 
67

>  <i_i_glide_posenum>  (1) 
210

>  <i_i_glide_rotatable_bonds>  (1) 
10

>  <i_lp_mmshare_version>  (1) 
72125

>  <i_m_source_file_index>  (1) 
41

>  <i_f3d_flags>  (1) 
0

>  <num_sample>  (1) 
100

>  <b_lp_Chiralities_Consistent>  (1) 
1

>  <r_epik_Charging_Adjusted_Penalty>  (1) 
0.00021732795814705282

>  <r_epik_Ionization_Penalty>  (1) 
0.031196808922400864

>  <r_epik_Ionization_Penalty_Charging>  (1) 
0.00021732795814705282

>  <r_epik_Ionization_Penalty_Neutral>  (1) 
0.030979480964253809

>  <r_epik_State_Penalty>  (1) 
-0

>  <r_glide_ring_energy>  (1) 
0

>  <r_i_docking_score>  (1) 
-6.1577383161428623

>  <r_i_glide_ecoul>  (1) 
-4.4736764852950941

>  <r_i_glide_eff_state_penalty>  (1) 
-0

>  <r_i_glide_einternal>  (1) 
36.650650064306717

>  <r_i_glide_emodel>  (1) 
-32.334327343072246

>  <r_i_glide_emodel_strain>  (1) 
0.52310541678974687

>  <r_i_glide_energy>  (1) 
-34.412719617916949

>  <r_i_glide_erotb>  (1) 
0.22094114760398115

>  <r_i_glide_esite>  (1) 
-0.14728681816993558

>  <r_i_glide_evdw>  (1) 
-29.939043132621858

>  <r_i_glide_gscore>  (1) 
-6.1577383161428623

>  <r_i_glide_gscore_strain>  (1) 
0

>  <r_i_glide_hbond>  (1) 
-0.27673353847461801

>  <r_i_glide_ligand_efficiency>  (1) 
-0.14320321665448518

>  <r_i_glide_ligand_efficiency_ln>  (1) 
-1.2933164257990586

>  <r_i_glide_ligand_efficiency_sa>  (1) 
-0.50169787146846323

>  <r_i_glide_lipo>  (1) 
-2.1227883963149972

>  <r_i_glide_metal>  (1) 
-0

>  <r_i_glide_rewards>  (1) 
-1.6638670813619358

>  <r_lp_Energy>  (1) 
53.785801999999997

>  <r_lp_tautomer_probability>  (1) 
1

>  <s_epik_Chemistry_Notes>  (1) 
This compound has an ester and may undergo hydrolysis at high or low pH. This compound contains an acetal/aminal-like group ( X-CH(R)-Y where X, Y are N, S, or O) that may be acid/base labile, releasing an aldehyde. This compound has a N-S or N-O group and may undergo hydrolysis at high or low pH.

>  <s_epik_cmdline>  (1) 
J2VwaWtfcHl0aG9uJywgJy1waHQnLCAnMS4wJywgJy1waCcsICc3LjQnLCAnLXRuJywgJzgnLCAnLW1hJywgJzUwMCcsICctaW1hZScsICc8aW5maWxlLm1hZT4nLCAnLW9tYWUnLCAnPG91dGZpbGUubWFlPic=

>  <s_epik_input>  (1) 
W2NIXTFbY0hdW2NIXVtjSF1jKFtDSDJdMiljMVtOSF1bQ0BAXTIzW0NAQEhdKFtDSDJdMylbQ0BASF0oT0MoPU8pW05IMl0pW0NIMl1bQ0gyXU9bQ0BASF0oYyhjNDUpW2NIXVtjSF1bY0hdW2NIXTUpW0NIMl1bQ0gyXVtDQEBIXShbQ0gzXSlbQ0BASF00TjZPW0NIXT1DKFtDQEBIXTY3KVtDSDJdW0NIMl1bQ0BIXShbQ0gyXTcpW05IXVtDSDJdW05IMl0=

>  <s_glide_docking_method>  (1) 
confgen

>  <s_i_glide_gridfile>  (1) 
gpcr_drd2_6luq_protein_autoprepared_prepared

>  <s_lp_Force_Field>  (1) 
S-OPLS

>  <s_lp_Variant>  (1) 
DiffSBDD_40-2

>  <s_m_source_file>  (1) 
generated_generic_title2_ligand_DiffSBDD_2026-06-23_prepared.sdf

>  <GenAI_Model>  (1) 
DiffSBDD

>  <Protein>  (1) 
generic_title2

$$$$
DiffSBDD_64
     RDKit          3D

  0  0  0  0  0  0  0  0  0  0999 V3000
M  V30 BEGIN CTAB
M  V30 COUNTS 77 80 0 0 1
M  V30 BEGIN ATOM
M  V30 1 C 6.783402 6.372716 -17.202097 0
M  V30 2 C 10.574818 8.394549 -9.142845 0
M  V30 3 C 6.851272 4.543926 -18.924919 0 CFG=2
M  V30 4 C 6.350967 5.470729 -11.778206 0
M  V30 5 C 10.800851 7.268358 -5.515084 0
M  V30 6 C 5.716701 2.960724 -20.712953 0
M  V30 7 C 6.383271 6.474744 -12.938349 0 CFG=1
M  V30 8 O 12.636641 8.204168 -7.985024 0
M  V30 9 C 5.149293 5.432269 -20.439710 0
M  V30 10 C 6.977469 3.268521 -18.072602 0
M  V30 11 C 7.750330 5.159486 -11.222818 0
M  V30 12 C 11.272993 8.718310 -5.388424 0
M  V30 13 C 10.973059 9.317761 -6.751729 0
M  V30 14 C 4.456133 7.441618 -19.006388 0
M  V30 15 N 6.059980 5.618822 -18.264260 0 CFG=2 CHG=1
M  V30 16 C 5.675329 7.975982 -15.584981 0
M  V30 17 C 11.239040 8.195931 -7.760752 0 CFG=1
M  V30 18 C 6.239970 4.360815 -20.343582 0 CFG=1
M  V30 19 C 5.563579 6.452037 -19.386979 0 CFG=1
M  V30 20 C 7.211623 7.697769 -12.509581 0
M  V30 21 C 8.585600 7.339069 -11.927325 0
M  V30 22 C 10.838854 7.214123 -10.102342 0
M  V30 23 C 9.614615 5.383687 -8.716239 0
M  V30 24 C 9.501122 6.276052 -7.470865 0
M  V30 25 C 10.843807 6.896772 -7.013369 0 CFG=2
M  V30 26 S 7.003240 5.744933 -14.500196 0
M  V30 27 N 8.482569 6.390220 -10.785033 0 CFG=2 CHG=1
M  V30 28 C 9.775410 6.075325 -10.102236 0 CFG=1
M  V30 29 C 6.017270 6.499360 -15.857288 0 CFG=2
M  V30 30 H 6.975459 7.368890 -17.585026 0
M  V30 31 H 7.768891 5.936443 -17.030087 0
M  V30 32 H 9.503390 8.575529 -9.049050 0
M  V30 33 H 10.975418 9.306264 -9.585027 0
M  V30 34 H 7.860724 4.934044 -19.072968 0
M  V30 35 H 5.860082 4.549844 -12.094038 0
M  V30 36 H 5.738184 5.877297 -10.970635 0
M  V30 37 H 11.398681 6.588738 -4.906350 0
M  V30 38 H 9.775772 7.198347 -5.155246 0
M  V30 39 H 4.917832 2.634630 -20.047010 0
M  V30 40 H 5.315162 2.954908 -21.726907 0
M  V30 41 H 6.510565 2.214272 -20.678328 0
M  V30 42 H 5.349081 6.767803 -13.101114 0
M  V30 43 H 12.872141 9.011478 -8.417457 0
M  V30 44 H 4.175141 5.011540 -20.186737 0
M  V30 45 H 5.076061 5.863954 -21.438804 0
M  V30 46 H 7.690912 2.577402 -18.521070 0
M  V30 47 H 7.337795 3.488689 -17.066997 0
M  V30 48 H 6.035773 2.732473 -17.985020 0
M  V30 49 H 8.335261 4.635497 -11.980544 0
M  V30 50 H 7.617054 4.453223 -10.408104 0
M  V30 51 H 12.343448 8.780639 -5.194899 0
M  V30 52 H 10.776179 9.257138 -4.583382 0
M  V30 53 H 11.569989 10.213706 -6.920165 0
M  V30 54 H 9.919173 9.590227 -6.785025 0
M  V30 55 H 3.987679 7.859528 -19.897139 0
M  V30 56 H 3.683288 6.986297 -18.385035 0
M  V30 57 H 4.874393 8.294231 -18.479617 0
M  V30 58 H 5.090047 8.406393 -16.389738 0
M  V30 59 H 5.058160 8.109692 -14.701479 0
M  V30 60 H 6.575836 8.580620 -15.483815 0
M  V30 61 H 7.018125 4.614767 -21.066143 0
M  V30 62 H 6.403164 7.019764 -19.796544 0
M  V30 63 H 7.375417 8.364487 -13.352614 0
M  V30 64 H 6.651118 8.269415 -11.767621 0
M  V30 65 H 9.028643 8.280765 -11.607396 0
M  V30 66 H 9.227115 6.917583 -12.701986 0
M  V30 67 H 11.805993 6.790233 -9.845286 0
M  V30 68 H 11.012355 7.589765 -11.109120 0
M  V30 69 H 10.460159 4.718593 -8.553051 0
M  V30 70 H 8.759273 4.715158 -8.704798 0
M  V30 71 H 9.144969 5.625258 -6.673693 0
M  V30 72 H 8.719004 7.026868 -7.584663 0
M  V30 73 H 11.624666 6.147315 -7.147658 0
M  V30 74 H 10.175410 5.310160 -10.763246 0
M  V30 75 H 5.078300 5.948771 -15.908445 0
M  V30 76 H 7.889596 6.889608 -10.105710 0
M  V30 77 H 5.258101 5.171492 -17.845470 0
M  V30 END ATOM
M  V30 BEGIN BOND
M  V30 1 1 7 4
M  V30 2 1 10 3
M  V30 3 1 11 4
M  V30 4 1 12 5
M  V30 5 1 13 12
M  V30 6 1 15 1
M  V30 7 1 15 3
M  V30 8 1 17 2
M  V30 9 1 17 8 CFG=3
M  V30 10 1 17 13
M  V30 11 1 18 3
M  V30 12 1 18 6
M  V30 13 1 18 9
M  V30 14 1 19 9
M  V30 15 1 19 14
M  V30 16 1 19 15
M  V30 17 1 20 7
M  V30 18 1 21 20
M  V30 19 1 22 2
M  V30 20 1 24 23
M  V30 21 1 25 5
M  V30 22 1 25 17
M  V30 23 1 25 24
M  V30 24 1 26 7
M  V30 25 1 27 11
M  V30 26 1 27 21
M  V30 27 1 28 22
M  V30 28 1 28 23
M  V30 29 1 28 27
M  V30 30 1 29 1
M  V30 31 1 29 16
M  V30 32 1 29 26
M  V30 33 1 30 1
M  V30 34 1 31 1
M  V30 35 1 32 2
M  V30 36 1 33 2
M  V30 37 1 3 34 CFG=3
M  V30 38 1 35 4
M  V30 39 1 36 4
M  V30 40 1 37 5
M  V30 41 1 38 5
M  V30 42 1 39 6
M  V30 43 1 40 6
M  V30 44 1 41 6
M  V30 45 1 7 42 CFG=3
M  V30 46 1 43 8
M  V30 47 1 44 9
M  V30 48 1 45 9
M  V30 49 1 46 10
M  V30 50 1 47 10
M  V30 51 1 48 10
M  V30 52 1 49 11
M  V30 53 1 50 11
M  V30 54 1 51 12
M  V30 55 1 52 12
M  V30 56 1 53 13
M  V30 57 1 54 13
M  V30 58 1 55 14
M  V30 59 1 56 14
M  V30 60 1 57 14
M  V30 61 1 58 16
M  V30 62 1 59 16
M  V30 63 1 60 16
M  V30 64 1 18 61 CFG=3
M  V30 65 1 19 62 CFG=3
M  V30 66 1 63 20
M  V30 67 1 64 20
M  V30 68 1 65 21
M  V30 69 1 66 21
M  V30 70 1 67 22
M  V30 71 1 68 22
M  V30 72 1 69 23
M  V30 73 1 70 23
M  V30 74 1 71 24
M  V30 75 1 72 24
M  V30 76 1 25 73 CFG=1
M  V30 77 1 28 74 CFG=3
M  V30 78 1 29 75 CFG=3
M  V30 79 1 27 76 CFG=1
M  V30 80 1 15 77 CFG=1
M  V30 END BOND
M  V30 END CTAB
M  END
>  <i_epik_Tot_Q>  (1) 
2

>  <i_epik_Tot_abs_Q>  (1) 
2

>  <i_i_glide_confnum>  (1) 
69

>  <i_i_glide_lignum>  (1) 
103

>  <i_i_glide_posenum>  (1) 
93

>  <i_i_glide_rotatable_bonds>  (1) 
6

>  <i_lp_mmshare_version>  (1) 
72125

>  <i_m_source_file_index>  (1) 
65

>  <i_f3d_flags>  (1) 
0

>  <num_sample>  (1) 
100

>  <b_lp_Chiralities_Consistent>  (1) 
1

>  <r_epik_Charging_Adjusted_Penalty>  (1) 
0.010385271147369776

>  <r_epik_Ionization_Penalty>  (1) 
0.010385491156522124

>  <r_epik_Ionization_Penalty_Charging>  (1) 
0.010385271147369776

>  <r_epik_Ionization_Penalty_Neutral>  (1) 
2.2000915234807092e-07

>  <r_epik_State_Penalty>  (1) 
-0

>  <r_glide_ring_energy>  (1) 
0

>  <r_i_docking_score>  (1) 
-6.1501224612939689

>  <r_i_glide_ecoul>  (1) 
-7.0374656140998475

>  <r_i_glide_eff_state_penalty>  (1) 
-0

>  <r_i_glide_einternal>  (1) 
10.405045249175879

>  <r_i_glide_emodel>  (1) 
-41.9287196294826

>  <r_i_glide_emodel_strain>  (1) 
3.0085656379808654

>  <r_i_glide_energy>  (1) 
-38.197351111270663

>  <r_i_glide_erotb>  (1) 
0.5496323063178965

>  <r_i_glide_esite>  (1) 
-0.10000000000000001

>  <r_i_glide_evdw>  (1) 
-31.159885497170816

>  <r_i_glide_gscore>  (1) 
-6.1501224612939689

>  <r_i_glide_gscore_strain>  (1) 
0

>  <r_i_glide_hbond>  (1) 
-0.1964555171308508

>  <r_i_glide_ligand_efficiency>  (1) 
-0.21207318832048169

>  <r_i_glide_ligand_efficiency_ln>  (1) 
-1.4082220899867495

>  <r_i_glide_ligand_efficiency_sa>  (1) 
-0.65155602475385932

>  <r_i_glide_lipo>  (1) 
-2.5438518922366038

>  <r_i_glide_metal>  (1) 
-0

>  <r_i_glide_rewards>  (1) 
-1.2458332412708923

>  <r_lp_Energy>  (1) 
51.013120000000001

>  <r_lp_tautomer_probability>  (1) 
1

>  <s_epik_cmdline>  (1) 
J2VwaWtfcHl0aG9uJywgJy1waHQnLCAnMS4wJywgJy1waCcsICc3LjQnLCAnLXRuJywgJzgnLCAnLW1hJywgJzUwMCcsICctaW1hZScsICc8aW5maWxlLm1hZT4nLCAnLW9tYWUnLCAnPG91dGZpbGUubWFlPic=

>  <s_epik_input>  (1) 
W0NIM11bQ0BIXTFbQ0gyXVtDQEBIXShbQ0gzXSlOKFtDQEhdMVtDSDNdKVtDSDJdW0NASF0oW0NIM10pU1tDSF0yW0NIMl1bQ0gyXU4oW0NIMl1bQ0gyXTIpW0NAQEhdKFtDSDJdW0NIMl0zKVtDSDJdW0NIMl1bQ0BASF0oW0NAQF0zNFtPSF0pW0NIMl1bQ0gyXVtDSDJdNA==

>  <s_glide_docking_method>  (1) 
confgen

>  <s_i_glide_gridfile>  (1) 
gpcr_drd2_6luq_protein_autoprepared_prepared

>  <s_lp_Force_Field>  (1) 
S-OPLS

>  <s_lp_Variant>  (1) 
DiffSBDD_64-2

>  <s_m_source_file>  (1) 
generated_generic_title2_ligand_DiffSBDD_2026-06-23_prepared.sdf

>  <GenAI_Model>  (1) 
DiffSBDD

>  <Protein>  (1) 
generic_title2

$$$$
DiffSBDD_10
     RDKit          3D

  0  0  0  0  0  0  0  0  0  0999 V3000
M  V30 BEGIN CTAB
M  V30 COUNTS 55 59 0 0 1
M  V30 BEGIN ATOM
M  V30 1 S 9.714961 7.485315 -11.475380 0
M  V30 2 C 11.685594 7.990962 -9.834397 0
M  V30 3 C 7.489592 5.887869 -11.849159 0 CFG=1
M  V30 4 C 10.441221 7.097049 -6.587716 0
M  V30 5 C 6.020450 6.707851 -13.909545 0
M  V30 6 C 11.025906 7.670675 -5.345025 0
M  V30 7 O 8.975421 8.644805 -11.990140 0
M  V30 8 C 6.770249 5.638520 -14.737454 0
M  V30 9 C 12.175478 7.392742 -3.199645 0
M  V30 10 C 7.734891 3.209724 -14.422984 0
M  V30 11 C 8.169065 2.531321 -13.110941 0
M  V30 12 N 8.514863 6.390160 -10.914422 0
M  V30 13 C 6.042246 5.916966 -11.397519 0
M  V30 14 C 7.045417 4.422434 -13.854477 0 CFG=1
M  V30 15 O 10.586433 6.729196 -12.385140 0
M  V30 16 C 11.629869 6.835940 -4.374965 0
M  V30 17 N 10.374552 7.757034 -10.037521 0 CHG=-1
M  V30 18 C 6.514614 6.882994 -12.469635 0 CFG=1
M  V30 19 C 10.975400 9.055837 -5.125422 0
M  V30 20 C 9.234503 6.191717 -6.537160 0
M  V30 21 C 12.098266 8.780196 -2.981926 0
M  V30 22 O 12.575439 8.130396 -10.663353 0
M  V30 23 O 8.330966 3.575523 -12.144454 0
M  V30 24 C 11.542800 6.812450 -7.575749 0
M  V30 25 C 11.481163 9.604655 -3.943113 0
M  V30 26 C 12.021260 8.063068 -8.346917 0
M  V30 27 C 9.072553 7.597991 -7.019572 0
M  V30 28 C 8.036810 4.808487 -12.763761 0 CFG=2
M  V30 29 H 4.975448 6.425176 -13.849659 0
M  V30 30 H 6.053142 7.666544 -14.425088 0
M  V30 31 H 6.179459 5.362833 -15.610776 0
M  V30 32 H 7.710868 6.046115 -15.110654 0
M  V30 33 H 12.639068 6.752792 -2.462973 0
M  V30 34 H 7.085783 2.583574 -15.033991 0
M  V30 35 H 8.581987 3.515219 -15.029371 0
M  V30 36 H 7.377894 1.864710 -12.767004 0
M  V30 37 H 9.072692 1.930381 -13.185048 0
M  V30 38 H 8.025225 6.870279 -10.139712 0
M  V30 39 H 5.389090 5.100560 -11.691282 0
M  V30 40 H 5.774815 6.346578 -10.435448 0
M  V30 41 H 6.101984 4.074495 -13.434078 0
M  V30 42 H 11.675128 5.768852 -4.536444 0
M  V30 43 H 6.559398 7.919163 -12.139600 0
M  V30 44 H 10.510679 9.699444 -5.857191 0
M  V30 45 H 9.126334 5.411735 -7.287962 0
M  V30 46 H 8.771653 5.990337 -5.584305 0
M  V30 47 H 12.496067 9.210043 -2.072875 0
M  V30 48 H 12.376082 6.374957 -7.034632 0
M  V30 49 H 11.197478 6.032613 -8.255155 0
M  V30 50 H 11.375420 10.660586 -3.771116 0
M  V30 51 H 11.599450 8.982209 -7.938082 0
M  V30 52 H 13.102310 8.160891 -8.243057 0
M  V30 53 H 8.521333 8.270297 -6.365657 0
M  V30 54 H 8.836863 7.697512 -8.067996 0
M  V30 55 H 8.945540 5.167763 -13.243108 0
M  V30 END ATOM
M  V30 BEGIN BOND
M  V30 1 1 6 4
M  V30 2 2 7 1
M  V30 3 1 8 5
M  V30 4 1 11 10
M  V30 5 1 12 1
M  V30 6 1 3 12 CFG=1
M  V30 7 1 13 3
M  V30 8 1 14 8
M  V30 9 1 14 10
M  V30 10 2 15 1
M  V30 11 2 16 6
M  V30 12 1 16 9
M  V30 13 1 17 1
M  V30 14 1 17 2
M  V30 15 1 18 3
M  V30 16 1 18 5
M  V30 17 1 18 13
M  V30 18 1 19 6
M  V30 19 1 20 4
M  V30 20 2 21 9
M  V30 21 2 22 2
M  V30 22 1 23 11
M  V30 23 1 24 4
M  V30 24 2 25 19
M  V30 25 1 25 21
M  V30 26 1 26 2
M  V30 27 1 26 24
M  V30 28 1 27 4
M  V30 29 1 27 20
M  V30 30 1 28 3
M  V30 31 1 28 14
M  V30 32 1 28 23
M  V30 33 1 29 5
M  V30 34 1 30 5
M  V30 35 1 31 8
M  V30 36 1 32 8
M  V30 37 1 33 9
M  V30 38 1 34 10
M  V30 39 1 35 10
M  V30 40 1 36 11
M  V30 41 1 37 11
M  V30 42 1 38 12
M  V30 43 1 39 13
M  V30 44 1 40 13
M  V30 45 1 14 41 CFG=1
M  V30 46 1 42 16
M  V30 47 1 18 43 CFG=1
M  V30 48 1 44 19
M  V30 49 1 45 20
M  V30 50 1 46 20
M  V30 51 1 47 21
M  V30 52 1 48 24
M  V30 53 1 49 24
M  V30 54 1 50 25
M  V30 55 1 51 26
M  V30 56 1 52 26
M  V30 57 1 53 27
M  V30 58 1 54 27
M  V30 59 1 28 55 CFG=3
M  V30 END BOND
M  V30 END CTAB
M  END
>  <i_epik_Tot_Q>  (1) 
-1

>  <i_epik_Tot_abs_Q>  (1) 
1

>  <i_i_glide_confnum>  (1) 
360

>  <i_i_glide_lignum>  (1) 
18

>  <i_i_glide_posenum>  (1) 
73

>  <i_i_glide_rotatable_bonds>  (1) 
8

>  <i_lp_mmshare_version>  (1) 
72125

>  <i_m_source_file_index>  (1) 
11

>  <i_f3d_flags>  (1) 
0

>  <num_sample>  (1) 
100

>  <b_lp_Chiralities_Consistent>  (1) 
1

>  <r_epik_Charging_Adjusted_Penalty>  (1) 
1.3035197679919888

>  <r_epik_Ionization_Penalty>  (1) 
0.91253719082261775

>  <r_epik_Ionization_Penalty_Charging>  (1) 
0.91200715878158756

>  <r_epik_Ionization_Penalty_Neutral>  (1) 
0.00053003204103024045

>  <r_epik_State_Penalty>  (1) 
0.39151260921040132

>  <r_glide_ring_energy>  (1) 
0

>  <r_i_docking_score>  (1) 
-6.1485456943108652

>  <r_i_glide_ecoul>  (1) 
-4.7991556058395037

>  <r_i_glide_eff_state_penalty>  (1) 
0.39151260921040132

>  <r_i_glide_einternal>  (1) 
9.1901582625054701

>  <r_i_glide_emodel>  (1) 
-40.901622046767031

>  <r_i_glide_emodel_strain>  (1) 
0.7974058705051732

>  <r_i_glide_energy>  (1) 
-34.829996610671635

>  <r_i_glide_erotb>  (1) 
0.84406116630868921

>  <r_i_glide_esite>  (1) 
-0.20068508622568243

>  <r_i_glide_evdw>  (1) 
-30.03084100483213

>  <r_i_glide_gscore>  (1) 
-6.540058303521266

>  <r_i_glide_gscore_strain>  (1) 
0

>  <r_i_glide_hbond>  (1) 
-0.16

>  <r_i_glide_ligand_efficiency>  (1) 
-0.21959091765395947

>  <r_i_glide_ligand_efficiency_ln>  (1) 
-1.4192648753930142

>  <r_i_glide_ligand_efficiency_sa>  (1) 
-0.66680735887207021

>  <r_i_glide_lipo>  (1) 
-2.9698817520961849

>  <r_i_glide_metal>  (1) 
-0

>  <r_i_glide_rewards>  (1) 
-1.8321372403905558

>  <r_lp_Energy>  (1) 
22.621102

>  <s_epik_cmdline>  (1) 
J2VwaWtfcHl0aG9uJywgJy1waHQnLCAnMS4wJywgJy1waCcsICc3LjQnLCAnLXRuJywgJzgnLCAnLW1hJywgJzUwMCcsICctaW1hZScsICc8aW5maWxlLm1hZT4nLCAnLW9tYWUnLCAnPG91dGZpbGUubWFlPic=

>  <s_epik_input>  (1) 
W0NIMl0xW0NIMl1PW0NASF0yW0NASF0xW0NIMl1bQ0gyXVtDQEBIXShbQ0gyXTMpW0NAXTIzW05IXVMoPU8pKD1PKVtOSF1DKD1PKVtDSDJdW0NIMl1DNChbQ0gyXVtDSDJdNCljNVtjSF1bY0hdW2NIXVtjSF1bY0hdNQ==

>  <s_glide_docking_method>  (1) 
confgen

>  <s_i_glide_gridfile>  (1) 
gpcr_drd2_6luq_protein_autoprepared_prepared

>  <s_lp_Force_Field>  (1) 
S-OPLS

>  <s_lp_Variant>  (1) 
DiffSBDD_10-1

>  <s_m_source_file>  (1) 
generated_generic_title2_ligand_DiffSBDD_2026-06-23_prepared.sdf

>  <GenAI_Model>  (1) 
DiffSBDD

>  <Protein>  (1) 
generic_title2

$$$$
DiffSBDD_13
     RDKit          3D

  0  0  0  0  0  0  0  0  0  0999 V3000
M  V30 BEGIN CTAB
M  V30 COUNTS 57 60 0 0 1
M  V30 BEGIN ATOM
M  V30 1 C 6.381932 6.069510 -17.293368 0
M  V30 2 N 8.975411 7.135511 -6.926762 0 CHG=1
M  V30 3 N 6.145286 6.929555 -16.258982 0
M  V30 4 C 6.584933 6.296917 -13.869745 0 CFG=1
M  V30 5 N 5.775413 7.003931 -12.911892 0
M  V30 6 C 10.189371 6.809848 -9.103927 0 CFG=2
M  V30 7 N 7.396468 5.217060 -17.475162 0
M  V30 8 C 11.551610 8.781554 -7.293174 0
M  V30 9 C 7.236554 4.471824 -9.984888 0
M  V30 10 C 9.100116 6.052925 -9.899414 0
M  V30 11 C 6.955554 4.768219 -18.648234 0
M  V30 12 F 9.180297 2.292712 -19.761183 0
M  V30 13 C 5.477238 6.131425 -18.202178 0
M  V30 14 C 11.417923 7.301999 -6.897023 0
M  V30 15 C 6.976030 7.123610 -15.089423 0
M  V30 16 C 11.538831 8.943480 -8.820573 0
M  V30 17 C 5.597982 5.298028 -19.356429 0
M  V30 18 C 4.518033 7.102423 -17.779616 0
M  V30 19 C 8.958539 6.269508 -11.290522 0
M  V30 20 O 7.599379 3.802433 -19.391771 0
M  V30 21 C 10.200976 6.621739 -7.556852 0 CFG=1
M  V30 22 F 9.731304 4.114521 -18.706779 0
M  V30 23 F 8.486688 2.569752 -17.716818 0
M  V30 24 C 4.959063 7.590178 -16.558791 0
M  V30 25 C 8.725151 3.220328 -18.884866 0
M  V30 26 O 6.137146 4.010627 -12.051270 0
M  V30 27 C 10.284049 8.314659 -9.448348 0
M  V30 28 C 7.097366 4.687425 -11.356599 0
M  V30 29 O 7.815434 5.834033 -13.361379 0
M  V30 30 C 8.231369 5.147158 -9.250632 0
M  V30 31 C 7.951978 5.596614 -12.015615 0
M  V30 32 H 8.953989 8.140275 -7.008326 0
M  V30 33 H 8.135225 6.791003 -7.391302 0
M  V30 34 H 6.030798 5.423469 -14.214496 0
M  V30 35 H 6.328530 7.590880 -12.300333 0
M  V30 36 H 5.079723 7.590741 -13.349294 0
M  V30 37 H 11.121658 6.390232 -9.457149 0
M  V30 38 H 12.477205 9.190216 -6.886370 0
M  V30 39 H 10.744376 9.359902 -6.842936 0
M  V30 40 H 6.576569 3.778906 -9.484539 0
M  V30 41 H 12.329031 6.784443 -7.185025 0
M  V30 42 H 11.363884 7.208991 -5.811313 0
M  V30 43 H 7.040307 8.182929 -14.838878 0
M  V30 44 H 7.974755 6.790224 -15.352749 0
M  V30 45 H 12.429726 8.474523 -9.241228 0
M  V30 46 H 11.604835 9.992972 -9.099398 0
M  V30 47 H 4.844458 4.518568 -19.452006 0
M  V30 48 H 5.792316 5.843567 -20.279528 0
M  V30 49 H 3.622859 7.414104 -18.297556 0
M  V30 50 H 9.612336 6.956572 -11.802436 0
M  V30 51 H 10.266929 5.558405 -7.329848 0
M  V30 52 H 4.548443 8.335181 -15.892633 0
M  V30 53 H 6.157246 4.235993 -12.966663 0
M  V30 54 H 10.356970 8.463920 -10.522817 0
M  V30 55 H 9.380911 8.838846 -9.132400 0
M  V30 56 H 8.321412 4.962994 -8.193859 0
M  V30 57 H 8.934811 6.874131 -5.952231 0
M  V30 END ATOM
M  V30 BEGIN BOND
M  V30 1 1 3 1
M  V30 2 1 5 4
M  V30 3 1 7 1
M  V30 4 1 10 6
M  V30 5 2 11 7
M  V30 6 2 13 1
M  V30 7 1 14 8
M  V30 8 1 15 3
M  V30 9 1 15 4
M  V30 10 1 16 8
M  V30 11 1 17 11
M  V30 12 1 17 13
M  V30 13 1 18 13
M  V30 14 2 19 10
M  V30 15 1 20 11
M  V30 16 1 21 2
M  V30 17 1 21 6
M  V30 18 1 21 14
M  V30 19 1 24 3
M  V30 20 2 24 18
M  V30 21 1 25 12
M  V30 22 1 25 20
M  V30 23 1 25 22
M  V30 24 1 25 23
M  V30 25 1 27 6
M  V30 26 1 27 16
M  V30 27 1 28 9
M  V30 28 1 28 26
M  V30 29 1 29 4
M  V30 30 2 30 9
M  V30 31 1 30 10
M  V30 32 1 31 19
M  V30 33 2 31 28
M  V30 34 1 31 29
M  V30 35 1 32 2
M  V30 36 1 33 2
M  V30 37 1 4 34 CFG=3
M  V30 38 1 35 5
M  V30 39 1 36 5
M  V30 40 1 6 37 CFG=3
M  V30 41 1 38 8
M  V30 42 1 39 8
M  V30 43 1 40 9
M  V30 44 1 41 14
M  V30 45 1 42 14
M  V30 46 1 43 15
M  V30 47 1 44 15
M  V30 48 1 45 16
M  V30 49 1 46 16
M  V30 50 1 47 17
M  V30 51 1 48 17
M  V30 52 1 49 18
M  V30 53 1 50 19
M  V30 54 1 21 51 CFG=3
M  V30 55 1 52 24
M  V30 56 1 53 26
M  V30 57 1 54 27
M  V30 58 1 55 27
M  V30 59 1 56 30
M  V30 60 1 57 2
M  V30 END BOND
M  V30 END CTAB
M  END
>  <i_epik_Tot_Q>  (1) 
1

>  <i_epik_Tot_abs_Q>  (1) 
1

>  <i_i_glide_confnum>  (1) 
201

>  <i_i_glide_lignum>  (1) 
25

>  <i_i_glide_posenum>  (1) 
34

>  <i_i_glide_rotatable_bonds>  (1) 
8

>  <i_lp_mmshare_version>  (1) 
72125

>  <i_m_source_file_index>  (1) 
14

>  <i_f3d_flags>  (1) 
0

>  <num_sample>  (1) 
100

>  <b_lp_Chiralities_Consistent>  (1) 
1

>  <r_epik_Charging_Adjusted_Penalty>  (1) 
0.0019488154280528094

>  <r_epik_Ionization_Penalty>  (1) 
0.0073063651558797956

>  <r_epik_Ionization_Penalty_Charging>  (1) 
0.0019488154280528094

>  <r_epik_Ionization_Penalty_Neutral>  (1) 
0.0053575497278269858

>  <r_epik_State_Penalty>  (1) 
-0

>  <r_glide_ring_energy>  (1) 
0

>  <r_i_docking_score>  (1) 
-6.1325987225834675

>  <r_i_glide_ecoul>  (1) 
-2.8532226539219065

>  <r_i_glide_eff_state_penalty>  (1) 
-0

>  <r_i_glide_einternal>  (1) 
13.129864807662216

>  <r_i_glide_emodel>  (1) 
-38.730603979999586

>  <r_i_glide_emodel_strain>  (1) 
0.8959876822376458

>  <r_i_glide_energy>  (1) 
-32.368345193894584

>  <r_i_glide_erotb>  (1) 
0.43404420260612414

>  <r_i_glide_esite>  (1) 
-0.086898009233053963

>  <r_i_glide_evdw>  (1) 
-29.51512253997268

>  <r_i_glide_gscore>  (1) 
-6.1325987225834675

>  <r_i_glide_gscore_strain>  (1) 
0

>  <r_i_glide_hbond>  (1) 
-0.14094809043352496

>  <r_i_glide_ligand_efficiency>  (1) 
-0.19782576524462797

>  <r_i_glide_ligand_efficiency_ln>  (1) 
-1.3830889535224891

>  <r_i_glide_ligand_efficiency_sa>  (1) 
-0.62144603148399613

>  <r_i_glide_lipo>  (1) 
-1.9270425935255184

>  <r_i_glide_metal>  (1) 
-0

>  <r_i_glide_rewards>  (1) 
-2.5080147069105743

>  <r_lp_Energy>  (1) 
39.564299999999996

>  <r_lp_tautomer_probability>  (1) 
1

>  <s_epik_Chemistry_Notes>  (1) 
This compound has an imine and may undergo hydrolysis. This compound contains an acetal/aminal-like group ( X-CH(R)-Y where X, Y are N, S, or O) that may be acid/base labile, releasing an aldehyde.

>  <s_epik_cmdline>  (1) 
J2VwaWtfcHl0aG9uJywgJy1waHQnLCAnMS4wJywgJy1waCcsICc3LjQnLCAnLXRuJywgJzgnLCAnLW1hJywgJzUwMCcsICctaW1hZScsICc8aW5maWxlLm1hZT4nLCAnLW9tYWUnLCAnPG91dGZpbGUubWFlPic=

>  <s_epik_input>  (1) 
RkMoRikoRilPQyg9TjEpW0NIMl1jKGMxMilbY0hdW2NIXW4yW0NIMl1bQ0BIXShbTkgyXSlPYyhjKFtPSF0pW2NIXVtjSF0zKVtjSF1jM1tDQEBIXTRbQ0BIXShbTkgyXSlbQ0gyXVtDSDJdW0NIMl1bQ0gyXTQ=

>  <s_glide_docking_method>  (1) 
confgen

>  <s_i_glide_gridfile>  (1) 
gpcr_drd2_6luq_protein_autoprepared_prepared

>  <s_lp_Force_Field>  (1) 
S-OPLS

>  <s_lp_Variant>  (1) 
DiffSBDD_13-1

>  <s_m_source_file>  (1) 
generated_generic_title2_ligand_DiffSBDD_2026-06-23_prepared.sdf

>  <GenAI_Model>  (1) 
DiffSBDD

>  <Protein>  (1) 
generic_title2

$$$$
DiffSBDD_0
     RDKit          3D

  0  0  0  0  0  0  0  0  0  0999 V3000
M  V30 BEGIN CTAB
M  V30 COUNTS 39 41 0 0 1
M  V30 BEGIN ATOM
M  V30 1 N 10.433492 8.921451 -6.451275 0
M  V30 2 C 12.062848 7.085309 -2.461832 0
M  V30 3 C 10.650589 6.481530 -6.424650 0
M  V30 4 C 9.375410 7.691476 -8.265301 0
M  V30 5 O 8.759977 5.426402 -13.669863 0
M  V30 6 C 12.041728 9.516786 -3.243995 0
M  V30 7 N 12.263649 8.069017 -3.518052 0
M  V30 8 C 9.402535 5.151535 -9.430374 0
M  V30 9 C 11.375415 10.176791 -4.573248 0
M  V30 10 C 11.595299 7.808724 -4.681165 0
M  V30 11 C 11.123608 8.904473 -5.293830 0
M  V30 12 C 11.375399 6.541230 -5.224162 0
M  V30 13 C 10.196036 7.698019 -6.998110 0
M  V30 14 C 8.834028 4.782790 -10.796994 0
M  V30 15 C 7.746434 5.944639 -12.831401 0
M  V30 16 S 10.175402 6.790228 -9.616865 0 CHG=1
M  V30 17 C 9.170581 7.220800 -11.073981 0
M  V30 18 C 8.202715 6.059556 -11.364383 0 CFG=2
M  V30 19 H 11.016886 6.790254 -2.365038 0
M  V30 20 H 12.657401 6.190550 -2.647299 0
M  V30 21 H 12.389731 7.504689 -1.512047 0
M  V30 22 H 10.436400 5.537651 -6.891226 0
M  V30 23 H 9.137894 8.709843 -8.576732 0
M  V30 24 H 8.462662 7.190148 -7.985022 0
M  V30 25 H 9.502339 6.010106 -13.675742 0
M  V30 26 H 11.375567 9.627026 -2.387599 0
M  V30 27 H 12.985283 9.990226 -2.992485 0
M  V30 28 H 10.114570 4.414924 -9.059132 0
M  V30 29 H 8.581699 5.185670 -8.714614 0
M  V30 30 H 12.060840 10.777405 -5.171041 0
M  V30 31 H 10.464725 10.737003 -4.363545 0
M  V30 32 H 11.741823 5.646796 -4.743048 0
M  V30 33 H 8.093594 3.990227 -10.724437 0
M  V30 34 H 9.640164 4.423799 -11.438398 0
M  V30 35 H 7.417605 6.913333 -13.210023 0
M  V30 36 H 6.888005 5.275012 -12.896542 0
M  V30 37 H 9.859924 7.342664 -11.909551 0
M  V30 38 H 8.654000 8.172990 -10.947386 0
M  V30 39 H 7.299688 6.243238 -10.785028 0
M  V30 END ATOM
M  V30 BEGIN BOND
M  V30 1 1 7 2
M  V30 2 1 7 6
M  V30 3 1 9 6
M  V30 4 1 10 7
M  V30 5 1 11 1
M  V30 6 1 11 9
M  V30 7 2 11 10
M  V30 8 2 12 3
M  V30 9 1 12 10
M  V30 10 2 13 1
M  V30 11 1 13 3
M  V30 12 1 13 4
M  V30 13 1 14 8
M  V30 14 1 15 5
M  V30 15 1 16 4 CFG=1
M  V30 16 1 16 8
M  V30 17 1 17 16
M  V30 18 1 18 14
M  V30 19 1 18 15
M  V30 20 1 18 17
M  V30 21 1 19 2
M  V30 22 1 20 2
M  V30 23 1 21 2
M  V30 24 1 22 3
M  V30 25 1 23 4
M  V30 26 1 24 4
M  V30 27 1 25 5
M  V30 28 1 26 6
M  V30 29 1 27 6
M  V30 30 1 28 8
M  V30 31 1 29 8
M  V30 32 1 30 9
M  V30 33 1 31 9
M  V30 34 1 32 12
M  V30 35 1 33 14
M  V30 36 1 34 14
M  V30 37 1 35 15
M  V30 38 1 36 15
M  V30 39 1 37 17
M  V30 40 1 38 17
M  V30 41 1 18 39 CFG=1
M  V30 END BOND
M  V30 END CTAB
M  END
>  <i_epik_Tot_Q>  (1) 
1

>  <i_epik_Tot_abs_Q>  (1) 
1

>  <i_i_glide_confnum>  (1) 
14

>  <i_i_glide_lignum>  (1) 
1

>  <i_i_glide_posenum>  (1) 
83

>  <i_i_glide_rotatable_bonds>  (1) 
4

>  <i_lp_mmshare_version>  (1) 
72125

>  <i_m_source_file_index>  (1) 
1

>  <i_f3d_flags>  (1) 
0

>  <num_sample>  (1) 
100

>  <b_lp_Chiralities_Consistent>  (1) 
1

>  <r_epik_Charging_Adjusted_Penalty>  (1) 
0

>  <r_epik_Ionization_Penalty>  (1) 
0.00029429108255977062

>  <r_epik_Ionization_Penalty_Charging>  (1) 
0

>  <r_epik_Ionization_Penalty_Neutral>  (1) 
0.00029429108255977062

>  <r_epik_State_Penalty>  (1) 
-0

>  <r_glide_ring_energy>  (1) 
0

>  <r_i_docking_score>  (1) 
-6.1312969316896222

>  <r_i_glide_ecoul>  (1) 
-5.3759194155681191

>  <r_i_glide_eff_state_penalty>  (1) 
-0

>  <r_i_glide_einternal>  (1) 
2.989703148656969

>  <r_i_glide_emodel>  (1) 
-40.255134869573858

>  <r_i_glide_emodel_strain>  (1) 
0.39703810102754744

>  <r_i_glide_energy>  (1) 
-29.529436649433222

>  <r_i_glide_erotb>  (1) 
0.7579090882420203

>  <r_i_glide_esite>  (1) 
-0.056432178646065728

>  <r_i_glide_evdw>  (1) 
-24.153517233865102

>  <r_i_glide_gscore>  (1) 
-6.1312969316896222

>  <r_i_glide_gscore_strain>  (1) 
0

>  <r_i_glide_hbond>  (1) 
0

>  <r_i_glide_ligand_efficiency>  (1) 
-0.3406276073160901

>  <r_i_glide_ligand_efficiency_ln>  (1) 
-1.5760182607857778

>  <r_i_glide_ligand_efficiency_sa>  (1) 
-0.89269687050361068

>  <r_i_glide_lipo>  (1) 
-2.1177269254672937

>  <r_i_glide_metal>  (1) 
-0

>  <r_i_glide_rewards>  (1) 
-2.7009831417898109

>  <r_lp_Energy>  (1) 
8.6419370000000004

>  <r_lp_tautomer_probability>  (1) 
1

>  <s_epik_cmdline>  (1) 
J2VwaWtfcHl0aG9uJywgJy1waHQnLCAnMS4wJywgJy1waCcsICc3LjQnLCAnLXRuJywgJzgnLCAnLW1hJywgJzUwMCcsICctaW1hZScsICc8aW5maWxlLm1hZT4nLCAnLW9tYWUnLCAnPG91dGZpbGUubWFlPic=

>  <s_epik_input>  (1) 
W0NIM11OMVtDSDJdW0NIMl1jKGMxMiluYyhbY0hdW2NIXTIpW0NIMl1bUytdM1tDSDJdW0NIMl1bQ0BASF0oW0NIMl0zKVtDSDJdW09IXQ==

>  <s_glide_docking_method>  (1) 
confgen

>  <s_i_glide_gridfile>  (1) 
gpcr_drd2_6luq_protein_autoprepared_prepared

>  <s_lp_Force_Field>  (1) 
S-OPLS

>  <s_lp_Variant>  (1) 
DiffSBDD_0-1

>  <s_m_source_file>  (1) 
generated_generic_title2_ligand_DiffSBDD_2026-06-23_prepared.sdf

>  <GenAI_Model>  (1) 
DiffSBDD

>  <Protein>  (1) 
generic_title2

$$$$
DiffSBDD_13
     RDKit          3D

  0  0  0  0  0  0  0  0  0  0999 V3000
M  V30 BEGIN CTAB
M  V30 COUNTS 57 60 0 0 1
M  V30 BEGIN ATOM
M  V30 1 C 6.265679 6.109190 -17.528516 0
M  V30 2 N 8.975378 7.306655 -6.947946 0 CHG=1
M  V30 3 N 6.175428 6.803069 -16.354610 0
M  V30 4 C 6.779041 6.066172 -14.022938 0 CFG=1
M  V30 5 N 5.775488 6.713557 -13.222552 0
M  V30 6 C 10.282100 6.839992 -9.047548 0 CFG=2
M  V30 7 N 7.237619 5.301770 -17.967807 0
M  V30 8 C 11.642880 8.781827 -7.217877 0
M  V30 9 C 7.324859 4.540048 -9.985020 0
M  V30 10 C 9.206053 6.094757 -9.865516 0
M  V30 11 C 6.642398 5.034437 -19.128956 0
M  V30 12 F 8.700031 2.825641 -20.919899 0
M  V30 13 C 5.251962 6.301021 -18.292793 0
M  V30 14 C 11.441351 7.304902 -6.840286 0
M  V30 15 C 7.154954 6.827599 -15.283100 0
M  V30 16 C 11.682543 8.947467 -8.744045 0
M  V30 17 C 5.210662 5.652155 -19.563589 0
M  V30 18 C 4.368309 7.190068 -17.610143 0
M  V30 19 C 9.092797 6.319513 -11.256937 0
M  V30 20 O 7.173989 4.202927 -20.091574 0
M  V30 21 C 10.197259 6.693657 -7.503564 0 CFG=1
M  V30 22 F 9.380274 4.489380 -19.693091 0
M  V30 23 F 8.324109 2.768345 -18.776967 0
M  V30 24 C 4.970451 7.496624 -16.399629 0
M  V30 25 C 8.371795 3.594526 -19.853630 0
M  V30 26 O 6.228835 4.123701 -12.058613 0
M  V30 27 C 10.443608 8.335388 -9.421924 0
M  V30 28 C 7.204159 4.769146 -11.358024 0
M  V30 29 O 8.005929 5.913485 -13.361542 0
M  V30 30 C 8.318774 5.190226 -9.235479 0
M  V30 31 C 8.092260 5.667184 -12.005483 0
M  V30 32 H 9.020890 8.304736 -7.081812 0
M  V30 33 H 8.130894 6.984041 -7.422219 0
M  V30 34 H 6.429237 5.077949 -14.324507 0
M  V30 35 H 6.176561 7.438437 -12.640967 0
M  V30 36 H 5.070672 7.159415 -13.792338 0
M  V30 37 H 11.224145 6.390235 -9.330892 0
M  V30 38 H 12.572915 9.152514 -6.785196 0
M  V30 39 H 10.847981 9.392060 -6.787966 0
M  V30 40 H 6.645529 3.857824 -9.497201 0
M  V30 41 H 12.310067 6.743896 -7.184352 0
M  V30 42 H 11.397319 7.187258 -5.756544 0
M  V30 43 H 7.373030 7.863862 -15.021689 0
M  V30 44 H 8.081269 6.389474 -15.653116 0
M  V30 45 H 12.581063 8.466499 -9.133440 0
M  V30 46 H 11.775359 9.997886 -9.013560 0
M  V30 47 H 4.443811 4.888557 -19.671410 0
M  V30 48 H 5.285374 6.331151 -20.413034 0
M  V30 49 H 3.417786 7.569591 -17.956392 0
M  V30 50 H 9.766306 6.998763 -11.753347 0
M  V30 51 H 10.196542 5.635765 -7.239305 0
M  V30 52 H 4.659991 8.135249 -15.585999 0
M  V30 53 H 5.860842 4.730395 -12.688028 0
M  V30 54 H 10.583292 8.458512 -10.493132 0
M  V30 55 H 9.541696 8.894532 -9.169499 0
M  V30 56 H 8.388485 4.999691 -8.178703 0
M  V30 57 H 8.886716 7.101295 -5.963209 0
M  V30 END ATOM
M  V30 BEGIN BOND
M  V30 1 1 3 1
M  V30 2 1 5 4
M  V30 3 1 7 1
M  V30 4 1 10 6
M  V30 5 2 11 7
M  V30 6 2 13 1
M  V30 7 1 14 8
M  V30 8 1 15 3
M  V30 9 1 15 4
M  V30 10 1 16 8
M  V30 11 1 17 11
M  V30 12 1 17 13
M  V30 13 1 18 13
M  V30 14 2 19 10
M  V30 15 1 20 11
M  V30 16 1 21 2
M  V30 17 1 21 6
M  V30 18 1 21 14
M  V30 19 1 24 3
M  V30 20 2 24 18
M  V30 21 1 25 12
M  V30 22 1 25 20
M  V30 23 1 25 22
M  V30 24 1 25 23
M  V30 25 1 27 6
M  V30 26 1 27 16
M  V30 27 1 28 9
M  V30 28 1 28 26
M  V30 29 1 29 4
M  V30 30 2 30 9
M  V30 31 1 30 10
M  V30 32 1 31 19
M  V30 33 2 31 28
M  V30 34 1 31 29
M  V30 35 1 32 2
M  V30 36 1 33 2
M  V30 37 1 4 34 CFG=3
M  V30 38 1 35 5
M  V30 39 1 36 5
M  V30 40 1 6 37 CFG=3
M  V30 41 1 38 8
M  V30 42 1 39 8
M  V30 43 1 40 9
M  V30 44 1 41 14
M  V30 45 1 42 14
M  V30 46 1 43 15
M  V30 47 1 44 15
M  V30 48 1 45 16
M  V30 49 1 46 16
M  V30 50 1 47 17
M  V30 51 1 48 17
M  V30 52 1 49 18
M  V30 53 1 50 19
M  V30 54 1 21 51 CFG=3
M  V30 55 1 52 24
M  V30 56 1 53 26
M  V30 57 1 54 27
M  V30 58 1 55 27
M  V30 59 1 56 30
M  V30 60 1 57 2
M  V30 END BOND
M  V30 END CTAB
M  END
>  <i_epik_Tot_Q>  (1) 
1

>  <i_epik_Tot_abs_Q>  (1) 
1

>  <i_i_glide_confnum>  (1) 
201

>  <i_i_glide_lignum>  (1) 
25

>  <i_i_glide_posenum>  (1) 
33

>  <i_i_glide_rotatable_bonds>  (1) 
8

>  <i_lp_mmshare_version>  (1) 
72125

>  <i_m_source_file_index>  (1) 
14

>  <i_f3d_flags>  (1) 
0

>  <num_sample>  (1) 
100

>  <b_lp_Chiralities_Consistent>  (1) 
1

>  <r_epik_Charging_Adjusted_Penalty>  (1) 
0.0019488154280528094

>  <r_epik_Ionization_Penalty>  (1) 
0.0073063651558797956

>  <r_epik_Ionization_Penalty_Charging>  (1) 
0.0019488154280528094

>  <r_epik_Ionization_Penalty_Neutral>  (1) 
0.0053575497278269858

>  <r_epik_State_Penalty>  (1) 
-0

>  <r_glide_ring_energy>  (1) 
0

>  <r_i_docking_score>  (1) 
-6.1192015327661542

>  <r_i_glide_ecoul>  (1) 
-2.2216080428896898

>  <r_i_glide_eff_state_penalty>  (1) 
-0

>  <r_i_glide_einternal>  (1) 
12.110543767986996

>  <r_i_glide_emodel>  (1) 
-39.208429678541243

>  <r_i_glide_emodel_strain>  (1) 
1.4349494176153001

>  <r_i_glide_energy>  (1) 
-32.905670032152742

>  <r_i_glide_erotb>  (1) 
0.43404420260612414

>  <r_i_glide_esite>  (1) 
-0.086582179090059774

>  <r_i_glide_evdw>  (1) 
-30.68406198926305

>  <r_i_glide_gscore>  (1) 
-6.1192015327661542

>  <r_i_glide_gscore_strain>  (1) 
0

>  <r_i_glide_hbond>  (1) 
-0.15838323289857167

>  <r_i_glide_ligand_efficiency>  (1) 
-0.19739359783116625

>  <r_i_glide_ligand_efficiency_ln>  (1) 
-1.3800674766441252

>  <r_i_glide_ligand_efficiency_sa>  (1) 
-0.62008842913275342

>  <r_i_glide_lipo>  (1) 
-1.9804155200657345

>  <r_i_glide_metal>  (1) 
-0

>  <r_i_glide_rewards>  (1) 
-2.4604204974213055

>  <r_lp_Energy>  (1) 
39.564299999999996

>  <r_lp_tautomer_probability>  (1) 
1

>  <s_epik_Chemistry_Notes>  (1) 
This compound has an imine and may undergo hydrolysis. This compound contains an acetal/aminal-like group ( X-CH(R)-Y where X, Y are N, S, or O) that may be acid/base labile, releasing an aldehyde.

>  <s_epik_cmdline>  (1) 
J2VwaWtfcHl0aG9uJywgJy1waHQnLCAnMS4wJywgJy1waCcsICc3LjQnLCAnLXRuJywgJzgnLCAnLW1hJywgJzUwMCcsICctaW1hZScsICc8aW5maWxlLm1hZT4nLCAnLW9tYWUnLCAnPG91dGZpbGUubWFlPic=

>  <s_epik_input>  (1) 
RkMoRikoRilPQyg9TjEpW0NIMl1jKGMxMilbY0hdW2NIXW4yW0NIMl1bQ0BIXShbTkgyXSlPYyhjKFtPSF0pW2NIXVtjSF0zKVtjSF1jM1tDQEBIXTRbQ0BIXShbTkgyXSlbQ0gyXVtDSDJdW0NIMl1bQ0gyXTQ=

>  <s_glide_docking_method>  (1) 
confgen

>  <s_i_glide_gridfile>  (1) 
gpcr_drd2_6luq_protein_autoprepared_prepared

>  <s_lp_Force_Field>  (1) 
S-OPLS

>  <s_lp_Variant>  (1) 
DiffSBDD_13-1

>  <s_m_source_file>  (1) 
generated_generic_title2_ligand_DiffSBDD_2026-06-23_prepared.sdf

>  <GenAI_Model>  (1) 
DiffSBDD

>  <Protein>  (1) 
generic_title2

$$$$
DiffSBDD_52
     RDKit          3D

  0  0  0  0  0  0  0  0  0  0999 V3000
M  V30 BEGIN CTAB
M  V30 COUNTS 51 54 0 0 1
M  V30 BEGIN ATOM
M  V30 1 C 12.191507 9.468750 -3.561903 0
M  V30 2 F 12.581142 7.866826 -1.745727 0
M  V30 3 C 8.760181 5.362438 -11.316966 0 CFG=1
M  V30 4 C 7.674842 7.526241 -12.975575 0
M  V30 5 C 8.989846 7.493568 -12.229764 0 CFG=2
M  V30 6 C 11.775409 6.995228 -3.723752 0
M  V30 7 C 10.174043 8.022181 -7.801636 0
M  V30 8 C 7.907274 5.520819 -14.635225 0
M  V30 9 C 12.175421 8.059820 -3.009251 0
M  V30 10 N 8.575411 6.790225 -11.014935 0 CFG=2 CHG=1
M  V30 11 C 11.143193 8.539782 -5.676013 0 CFG=2
M  V30 12 O 8.546080 4.790233 -10.049155 0
M  V30 13 C 7.666187 4.016334 -14.539169 0
M  V30 14 O 11.250598 8.614532 -7.089424 0
M  V30 15 C 12.205796 9.482779 -5.096403 0
M  V30 16 C 7.272135 6.066589 -13.354432 0 CFG=1
M  V30 17 C 7.862022 3.678160 -13.056680 0
M  V30 18 C 10.773285 7.049856 -8.828494 0
M  V30 19 C 11.287670 7.079307 -5.161319 0
M  V30 20 C 9.479792 7.905320 -10.863131 0 CFG=1
M  V30 21 C 10.837638 7.551253 -10.285486 0
M  V30 22 C 7.589547 4.979721 -12.274148 0 CFG=1
M  V30 23 H 11.311643 9.990384 -3.185334 0
M  V30 24 H 13.066982 9.990202 -3.184408 0
M  V30 25 H 9.750907 5.110437 -11.700796 0
M  V30 26 H 7.775266 8.141153 -13.869490 0
M  V30 27 H 6.904109 7.990219 -12.356503 0
M  V30 28 H 9.788101 7.008684 -12.785024 0
M  V30 29 H 11.787790 6.013260 -3.273038 0
M  V30 30 H 9.576836 8.804998 -8.263584 0
M  V30 31 H 9.489655 7.480236 -7.147182 0
M  V30 32 H 8.979201 5.713135 -14.652183 0
M  V30 33 H 7.474359 5.955513 -15.537501 0
M  V30 34 H 10.175390 8.935219 -5.378683 0
M  V30 35 H 8.062556 3.984194 -10.155518 0
M  V30 36 H 8.327440 3.445212 -15.191701 0
M  V30 37 H 6.640021 3.791392 -14.833450 0
M  V30 38 H 13.192664 9.190609 -5.451869 0
M  V30 39 H 12.038472 10.496092 -5.462147 0
M  V30 40 H 6.193878 6.062093 -13.525135 0
M  V30 41 H 8.882806 3.329966 -12.892150 0
M  V30 42 H 7.200397 2.868606 -12.745856 0
M  V30 43 H 10.221214 6.115279 -8.779413 0
M  V30 44 H 11.775407 6.790223 -8.501365 0
M  V30 45 H 10.325728 6.569078 -5.218974 0
M  V30 46 H 11.966217 6.502536 -5.789038 0
M  V30 47 H 8.969267 8.746243 -10.400865 0
M  V30 48 H 11.314818 6.808582 -10.923274 0
M  V30 49 H 11.469670 8.438945 -10.333612 0
M  V30 50 H 6.680314 4.860541 -11.680721 0
M  V30 51 H 7.675849 7.061633 -10.607348 0
M  V30 END ATOM
M  V30 BEGIN BOND
M  V30 1 1 5 4
M  V30 2 1 9 1
M  V30 3 1 9 2
M  V30 4 2 9 6
M  V30 5 1 10 3
M  V30 6 1 10 5
M  V30 7 1 12 3
M  V30 8 1 13 8
M  V30 9 1 14 7
M  V30 10 1 14 11
M  V30 11 1 15 1
M  V30 12 1 15 11
M  V30 13 1 16 4
M  V30 14 1 16 8
M  V30 15 1 17 13
M  V30 16 1 18 7
M  V30 17 1 19 6
M  V30 18 1 19 11
M  V30 19 1 20 5
M  V30 20 1 20 10
M  V30 21 1 21 18
M  V30 22 1 21 20
M  V30 23 1 22 3
M  V30 24 1 22 16
M  V30 25 1 22 17
M  V30 26 1 23 1
M  V30 27 1 24 1
M  V30 28 1 3 25 CFG=3
M  V30 29 1 26 4
M  V30 30 1 27 4
M  V30 31 1 5 28 CFG=3
M  V30 32 1 29 6
M  V30 33 1 30 7
M  V30 34 1 31 7
M  V30 35 1 32 8
M  V30 36 1 33 8
M  V30 37 1 11 34 CFG=3
M  V30 38 1 35 12
M  V30 39 1 36 13
M  V30 40 1 37 13
M  V30 41 1 38 15
M  V30 42 1 39 15
M  V30 43 1 16 40 CFG=3
M  V30 44 1 41 17
M  V30 45 1 42 17
M  V30 46 1 43 18
M  V30 47 1 44 18
M  V30 48 1 45 19
M  V30 49 1 46 19
M  V30 50 1 20 47 CFG=1
M  V30 51 1 48 21
M  V30 52 1 49 21
M  V30 53 1 22 50 CFG=1
M  V30 54 1 10 51 CFG=1
M  V30 END BOND
M  V30 END CTAB
M  END
>  <i_epik_Tot_Q>  (1) 
1

>  <i_epik_Tot_abs_Q>  (1) 
1

>  <i_i_glide_confnum>  (1) 
126

>  <i_i_glide_lignum>  (1) 
85

>  <i_i_glide_posenum>  (1) 
67

>  <i_i_glide_rotatable_bonds>  (1) 
6

>  <i_lp_mmshare_version>  (1) 
72125

>  <i_m_source_file_index>  (1) 
53

>  <i_f3d_flags>  (1) 
0

>  <num_sample>  (1) 
100

>  <b_lp_Chiralities_Consistent>  (1) 
1

>  <r_epik_Charging_Adjusted_Penalty>  (1) 
0.54296395038273226

>  <r_epik_Ionization_Penalty>  (1) 
0.53316988730295212

>  <r_epik_Ionization_Penalty_Charging>  (1) 
0.022916544562111445

>  <r_epik_Ionization_Penalty_Neutral>  (1) 
0.51025334274084067

>  <r_epik_State_Penalty>  (1) 
0.52004740582062081

>  <r_glide_ring_energy>  (1) 
0

>  <r_i_docking_score>  (1) 
-6.1149181748998904

>  <r_i_glide_ecoul>  (1) 
-6.6770439850284484

>  <r_i_glide_eff_state_penalty>  (1) 
0.52004740582062081

>  <r_i_glide_einternal>  (1) 
7.4957629499910468

>  <r_i_glide_emodel>  (1) 
-49.642011300649756

>  <r_i_glide_emodel_strain>  (1) 
1.0562745692810012

>  <r_i_glide_energy>  (1) 
-36.065432077438167

>  <r_i_glide_erotb>  (1) 
0.76914675799504084

>  <r_i_glide_esite>  (1) 
-0.10000000000000001

>  <r_i_glide_evdw>  (1) 
-29.38838809240972

>  <r_i_glide_gscore>  (1) 
-6.634965580720511

>  <r_i_glide_gscore_strain>  (1) 
0

>  <r_i_glide_hbond>  (1) 
-0.1874382614476631

>  <r_i_glide_ligand_efficiency>  (1) 
-0.27795082613181321

>  <r_i_glide_ligand_efficiency_ln>  (1) 
-1.4947090490053911

>  <r_i_glide_ligand_efficiency_sa>  (1) 
-0.77882914680949777

>  <r_i_glide_lipo>  (1) 
-2.334784391165925

>  <r_i_glide_metal>  (1) 
-0

>  <r_i_glide_rewards>  (1) 
-2.3109136837272111

>  <r_lp_Energy>  (1) 
32.431187000000001

>  <s_epik_Chemistry_Notes>  (1) 
This compound contains an acetal/aminal-like group ( X-CH(R)-Y where X, Y are N, S, or O) that may be acid/base labile, releasing an aldehyde.

>  <s_epik_cmdline>  (1) 
J2VwaWtfcHl0aG9uJywgJy1waHQnLCAnMS4wJywgJy1waCcsICc3LjQnLCAnLXRuJywgJzgnLCAnLW1hJywgJzUwMCcsICctaW1hZScsICc8aW5maWxlLm1hZT4nLCAnLW9tYWUnLCAnPG91dGZpbGUubWFlPic=

>  <s_epik_input>  (1) 
RkMxPVtDSF1bQ0gyXVtDQEBIXShbQ0gyXVtDSDJdMSlPW0NIMl1bQ0gyXVtDSDJdW0NAQEhdMk4oW0NASF0yMylbQ0BASF0oW09IXSlbQ0BIXTRbQ0BASF0oW0NIMl0zKVtDSDJdW0NIMl1bQ0gyXTQ=

>  <s_glide_docking_method>  (1) 
confgen

>  <s_i_glide_gridfile>  (1) 
gpcr_drd2_6luq_protein_autoprepared_prepared

>  <s_lp_Force_Field>  (1) 
S-OPLS

>  <s_lp_Variant>  (1) 
DiffSBDD_52-4

>  <s_m_source_file>  (1) 
generated_generic_title2_ligand_DiffSBDD_2026-06-23_prepared.sdf

>  <GenAI_Model>  (1) 
DiffSBDD

>  <Protein>  (1) 
generic_title2

$$$$
DiffSBDD_11
     RDKit          3D

  0  0  0  0  0  0  0  0  0  0999 V3000
M  V30 BEGIN CTAB
M  V30 COUNTS 44 44 0 0 1
M  V30 BEGIN ATOM
M  V30 1 C 7.216619 6.563604 -12.704028 0 CFG=1
M  V30 2 C 12.065330 9.592962 -6.553420 0
M  V30 3 C 8.245933 5.617290 -12.066805 0
M  V30 4 C 11.067843 7.464329 -9.584900 0
M  V30 5 C 12.554086 8.126540 -3.120711 0
M  V30 6 C 10.898284 8.109169 -8.186519 0 CFG=1
M  V30 7 C 10.975317 7.608201 -5.634295 0
M  V30 8 C 9.830761 6.737400 -10.106207 0
M  V30 9 C 10.569222 7.128810 -7.021224 0 CFG=1
M  V30 10 C 5.820317 5.932816 -12.768139 0
M  V30 11 N 7.168169 7.846564 -11.985050 0 CHG=1
M  V30 12 N 11.628613 8.723209 -5.439067 0 CHG=1
M  V30 13 C 11.977077 9.193121 -4.069111 0
M  V30 14 C 9.058371 6.834285 -6.897672 0
M  V30 15 C 12.176873 8.874251 -7.892539 0
M  V30 16 S 9.880917 6.393690 -11.886252 0
M  V30 17 H 7.538232 6.785425 -13.721880 0
M  V30 18 H 11.375740 10.433777 -6.588971 0
M  V30 19 H 13.043564 9.997344 -6.289056 0
M  V30 20 H 7.895347 5.275218 -11.092122 0
M  V30 21 H 8.355145 4.724610 -12.682346 0
M  V30 22 H 11.314712 8.252512 -10.297600 0
M  V30 23 H 11.921914 6.790251 -9.584388 0
M  V30 24 H 12.933085 8.591716 -2.210167 0
M  V30 25 H 13.382235 7.591152 -3.584520 0
M  V30 26 H 11.802711 7.398774 -2.814927 0
M  V30 27 H 10.086822 8.833795 -8.249304 0
M  V30 28 H 10.718737 7.021052 -4.761924 0
M  V30 29 H 9.690624 5.792599 -9.580200 0
M  V30 30 H 8.975443 7.368963 -9.909451 0
M  V30 31 H 5.845345 4.985275 -13.306352 0
M  V30 32 H 5.121721 6.585358 -13.290174 0
M  V30 33 H 5.421494 5.740812 -11.770630 0
M  V30 34 H 6.975475 7.707555 -10.982001 0
M  V30 35 H 6.455616 8.444828 -12.372119 0
M  V30 36 H 12.713889 9.989176 -4.181595 0
M  V30 37 H 11.082775 9.657196 -3.650610 0
M  V30 38 H 8.839528 6.135419 -6.088646 0
M  V30 39 H 8.622001 6.393340 -7.788820 0
M  V30 40 H 8.505007 7.751388 -6.694440 0
M  V30 41 H 13.029304 8.194508 -7.875527 0
M  V30 42 H 12.350120 9.590223 -8.694500 0
M  V30 43 H 8.070525 8.292364 -12.065629 0
M  V30 44 H 11.094232 6.187875 -7.191058 0
M  V30 END ATOM
M  V30 BEGIN BOND
M  V30 1 1 3 1
M  V30 2 1 6 4
M  V30 3 1 8 4
M  V30 4 1 9 6
M  V30 5 1 9 7
M  V30 6 1 10 1
M  V30 7 1 11 1
M  V30 8 1 12 2
M  V30 9 2 12 7
M  V30 10 1 13 5
M  V30 11 1 13 12
M  V30 12 1 14 9
M  V30 13 1 15 2
M  V30 14 1 15 6
M  V30 15 1 16 3
M  V30 16 1 16 8
M  V30 17 1 1 17 CFG=3
M  V30 18 1 18 2
M  V30 19 1 19 2
M  V30 20 1 20 3
M  V30 21 1 21 3
M  V30 22 1 22 4
M  V30 23 1 23 4
M  V30 24 1 24 5
M  V30 25 1 25 5
M  V30 26 1 26 5
M  V30 27 1 6 27 CFG=3
M  V30 28 1 28 7
M  V30 29 1 29 8
M  V30 30 1 30 8
M  V30 31 1 31 10
M  V30 32 1 32 10
M  V30 33 1 33 10
M  V30 34 1 34 11
M  V30 35 1 35 11
M  V30 36 1 36 13
M  V30 37 1 37 13
M  V30 38 1 38 14
M  V30 39 1 39 14
M  V30 40 1 40 14
M  V30 41 1 41 15
M  V30 42 1 42 15
M  V30 43 1 43 11
M  V30 44 1 9 44 CFG=3
M  V30 END BOND
M  V30 END CTAB
M  END
>  <i_epik_Tot_Q>  (1) 
2

>  <i_epik_Tot_abs_Q>  (1) 
2

>  <i_i_glide_confnum>  (1) 
22

>  <i_i_glide_lignum>  (1) 
21

>  <i_i_glide_posenum>  (1) 
394

>  <i_i_glide_rotatable_bonds>  (1) 
6

>  <i_lp_mmshare_version>  (1) 
72125

>  <i_m_source_file_index>  (1) 
12

>  <i_f3d_flags>  (1) 
0

>  <num_sample>  (1) 
100

>  <b_lp_Chiralities_Consistent>  (1) 
1

>  <r_epik_Charging_Adjusted_Penalty>  (1) 
0.13380573077515515

>  <r_epik_Ionization_Penalty>  (1) 
0.13380575400753034

>  <r_epik_Ionization_Penalty_Charging>  (1) 
0.0076430572427279801

>  <r_epik_Ionization_Penalty_Neutral>  (1) 
0.12616269676480235

>  <r_epik_State_Penalty>  (1) 
0.12616267353242716

>  <r_glide_ring_energy>  (1) 
0

>  <r_i_docking_score>  (1) 
-6.1053950521804348

>  <r_i_glide_ecoul>  (1) 
-8.1813212089414176

>  <r_i_glide_eff_state_penalty>  (1) 
0.12616267353242716

>  <r_i_glide_einternal>  (1) 
5.8001360644793589

>  <r_i_glide_emodel>  (1) 
-44.38729837861834

>  <r_i_glide_emodel_strain>  (1) 
1.8732021222863136

>  <r_i_glide_energy>  (1) 
-33.034545096536036

>  <r_i_glide_erotb>  (1) 
1.1639209444696645

>  <r_i_glide_esite>  (1) 
-0.10000000000000001

>  <r_i_glide_evdw>  (1) 
-24.85322388759462

>  <r_i_glide_gscore>  (1) 
-6.2315577257128618

>  <r_i_glide_gscore_strain>  (1) 
0

>  <r_i_glide_hbond>  (1) 
-0.20000000000000001

>  <r_i_glide_ligand_efficiency>  (1) 
-0.38158719076127717

>  <r_i_glide_ligand_efficiency_ln>  (1) 
-1.618356916614984

>  <r_i_glide_ligand_efficiency_sa>  (1) 
-0.96153946802076729

>  <r_i_glide_lipo>  (1) 
-1.6264377291988035

>  <r_i_glide_metal>  (1) 
-0

>  <r_i_glide_rewards>  (1) 
-2.9991815652627789

>  <r_lp_Energy>  (1) 
22.734718999999998

>  <s_epik_Chemistry_Notes>  (1) 
This compound has an imine and may undergo hydrolysis.

>  <s_epik_cmdline>  (1) 
J2VwaWtfcHl0aG9uJywgJy1waHQnLCAnMS4wJywgJy1waCcsICc3LjQnLCAnLXRuJywgJzgnLCAnLW1hJywgJzUwMCcsICctaW1hZScsICc8aW5maWxlLm1hZT4nLCAnLW9tYWUnLCAnPG91dGZpbGUubWFlPic=

>  <s_epik_input>  (1) 
W0NIM11bQ0BASF0oW05IMl0pW0NIMl1TW0NIMl1bQ0gyXVtDQEhdMUMoW0NIM10pPVtDSF1OKFtDSDJdW0NIMl0xKVtDSDJdW0NIM10=

>  <s_glide_docking_method>  (1) 
confgen

>  <s_i_glide_gridfile>  (1) 
gpcr_drd2_6luq_protein_autoprepared_prepared

>  <s_lp_Force_Field>  (1) 
S-OPLS

>  <s_lp_Variant>  (1) 
DiffSBDD_11-1

>  <s_m_source_file>  (1) 
generated_generic_title2_ligand_DiffSBDD_2026-06-23_prepared.sdf

>  <GenAI_Model>  (1) 
DiffSBDD

>  <Protein>  (1) 
generic_title2

$$$$
DiffSBDD_55
     RDKit          3D

  0  0  0  0  0  0  0  0  0  0999 V3000
M  V30 BEGIN CTAB
M  V30 COUNTS 28 29 0 0 1
M  V30 BEGIN ATOM
M  V30 1 C 12.082961 6.983753 -2.973008 0
M  V30 2 C 11.375394 7.687918 -5.219087 0
M  V30 3 C 11.854830 9.352705 -3.479586 0
M  V30 4 C 10.468397 8.390086 -7.403681 0 CFG=2
M  V30 5 O 8.188371 5.590178 -9.595968 0
M  V30 6 S 10.377482 7.573226 -9.010516 0
M  V30 7 N 8.670132 5.590208 -8.230396 0
M  V30 8 N 11.033882 7.355770 -6.566386 0
M  V30 9 C 11.679726 6.660463 -4.284962 0
M  V30 10 C 10.644266 5.990216 -6.834934 0
M  V30 11 C 9.057479 8.717685 -6.955773 0
M  V30 12 C 12.175410 8.326602 -2.574030 0
M  V30 13 F 12.561083 8.633098 -1.314111 0
M  V30 14 C 11.465946 9.043935 -4.800681 0
M  V30 15 C 10.083001 5.938326 -8.264133 0 CFG=2
M  V30 16 H 12.323241 6.196159 -2.273559 0
M  V30 17 H 11.909167 10.378898 -3.160859 0
M  V30 18 H 11.110899 9.262560 -7.498099 0
M  V30 19 H 7.613015 6.361117 -9.585023 0
M  V30 20 H 8.435633 4.664070 -7.903973 0
M  V30 21 H 11.625242 5.625035 -4.578351 0
M  V30 22 H 9.905340 5.661018 -6.105880 0
M  V30 23 H 11.520100 5.344532 -6.770035 0
M  V30 24 H 9.064810 9.190178 -5.985018 0
M  V30 25 H 8.569284 9.376691 -7.668165 0
M  V30 26 H 8.444230 7.827227 -6.844181 0
M  V30 27 H 11.244973 9.845716 -5.486679 0
M  V30 28 H 10.575351 5.167237 -8.842506 0
M  V30 END ATOM
M  V30 BEGIN BOND
M  V30 1 1 6 4
M  V30 2 1 7 5
M  V30 3 1 8 2
M  V30 4 1 8 4
M  V30 5 2 9 1
M  V30 6 1 9 2
M  V30 7 1 10 8
M  V30 8 1 11 4
M  V30 9 1 12 1
M  V30 10 2 12 3
M  V30 11 1 13 12
M  V30 12 2 14 2
M  V30 13 1 14 3
M  V30 14 1 15 6
M  V30 15 1 15 7
M  V30 16 1 15 10
M  V30 17 1 16 1
M  V30 18 1 17 3
M  V30 19 1 4 18 CFG=3
M  V30 20 1 19 5
M  V30 21 1 20 7
M  V30 22 1 21 9
M  V30 23 1 22 10
M  V30 24 1 23 10
M  V30 25 1 24 11
M  V30 26 1 25 11
M  V30 27 1 26 11
M  V30 28 1 27 14
M  V30 29 1 15 28 CFG=3
M  V30 END BOND
M  V30 END CTAB
M  END
>  <i_epik_Tot_Q>  (1) 
0

>  <i_epik_Tot_abs_Q>  (1) 
0

>  <i_i_glide_confnum>  (1) 
8

>  <i_i_glide_lignum>  (1) 
88

>  <i_i_glide_posenum>  (1) 
80

>  <i_i_glide_rotatable_bonds>  (1) 
3

>  <i_lp_mmshare_version>  (1) 
72125

>  <i_m_source_file_index>  (1) 
56

>  <i_f3d_flags>  (1) 
0

>  <num_sample>  (1) 
100

>  <b_lp_Chiralities_Consistent>  (1) 
1

>  <r_epik_Charging_Adjusted_Penalty>  (1) 
0

>  <r_epik_Ionization_Penalty>  (1) 
0.00013553305087233701

>  <r_epik_Ionization_Penalty_Charging>  (1) 
0

>  <r_epik_Ionization_Penalty_Neutral>  (1) 
0.00013553305087233701

>  <r_epik_State_Penalty>  (1) 
-0

>  <r_glide_ring_energy>  (1) 
1.903466321057584

>  <r_i_docking_score>  (1) 
-6.0984922863310347

>  <r_i_glide_ecoul>  (1) 
-3.9397247066409449

>  <r_i_glide_eff_state_penalty>  (1) 
-0

>  <r_i_glide_einternal>  (1) 
11.878989435692176

>  <r_i_glide_emodel>  (1) 
-22.825229529512821

>  <r_i_glide_emodel_strain>  (1) 
0.70302131793078715

>  <r_i_glide_energy>  (1) 
-21.763045648066328

>  <r_i_glide_erotb>  (1) 
0.65380846344162624

>  <r_i_glide_esite>  (1) 
-0.19202902150764123

>  <r_i_glide_evdw>  (1) 
-17.823320941425383

>  <r_i_glide_gscore>  (1) 
-6.0984922863310347

>  <r_i_glide_gscore_strain>  (1) 
0

>  <r_i_glide_hbond>  (1) 
-0.16

>  <r_i_glide_ligand_efficiency>  (1) 
-0.406566152422069

>  <r_i_glide_ligand_efficiency_ln>  (1) 
-1.6446628161933381

>  <r_i_glide_ligand_efficiency_sa>  (1) 
-1.0026783541173889

>  <r_i_glide_lipo>  (1) 
-2.0027757681881626

>  <r_i_glide_metal>  (1) 
-0

>  <r_i_glide_rewards>  (1) 
-2.9153712070094446

>  <r_lp_Energy>  (1) 
2.3965259999999997

>  <r_lp_tautomer_probability>  (1) 
1

>  <s_epik_Chemistry_Notes>  (1) 
This compound contains an acetal/aminal-like group ( X-CH(R)-Y where X, Y are N, S, or O) that may be acid/base labile, releasing an aldehyde. This compound has a N-S or N-O group and may undergo hydrolysis at high or low pH.

>  <s_epik_cmdline>  (1) 
J2VwaWtfcHl0aG9uJywgJy1waHQnLCAnMS4wJywgJy1waCcsICc3LjQnLCAnLXRuJywgJzgnLCAnLW1hJywgJzUwMCcsICctaW1hZScsICc8aW5maWxlLm1hZT4nLCAnLW9tYWUnLCAnPG91dGZpbGUubWFlPic=

>  <s_epik_input>  (1) 
W2NIXTFbY0hdYyhGKVtjSF1bY0hdYzFOMltDSDJdW0NAQEhdKFtOSF1bT0hdKVNbQ0BIXTJbQ0gzXQ==

>  <s_glide_docking_method>  (1) 
confgen

>  <s_i_glide_gridfile>  (1) 
gpcr_drd2_6luq_protein_autoprepared_prepared

>  <s_lp_Force_Field>  (1) 
S-OPLS

>  <s_lp_Variant>  (1) 
DiffSBDD_55-1

>  <s_m_source_file>  (1) 
generated_generic_title2_ligand_DiffSBDD_2026-06-23_prepared.sdf

>  <GenAI_Model>  (1) 
DiffSBDD

>  <Protein>  (1) 
generic_title2

$$$$
DiffSBDD_11
     RDKit          3D

  0  0  0  0  0  0  0  0  0  0999 V3000
M  V30 BEGIN CTAB
M  V30 COUNTS 44 44 0 0 1
M  V30 BEGIN ATOM
M  V30 1 C 7.900897 5.955898 -11.808713 0 CFG=1
M  V30 2 C 11.707978 9.567950 -5.080479 0
M  V30 3 C 8.510681 7.362761 -11.967581 0
M  V30 4 C 10.937463 8.642571 -8.760625 0
M  V30 5 C 13.245628 8.213851 -2.625974 0
M  V30 6 C 10.745374 8.684830 -7.219206 0 CFG=1
M  V30 7 C 10.976352 7.232383 -5.075660 0
M  V30 8 C 9.718535 8.108928 -9.516803 0
M  V30 9 C 10.643679 7.282618 -6.548106 0 CFG=2
M  V30 10 C 8.680205 4.880680 -12.584868 0
M  V30 11 N 7.775208 5.590222 -10.389170 0 CHG=1
M  V30 12 N 11.478839 8.253940 -4.435680 0 CHG=1
M  V30 13 C 11.775429 8.179270 -2.978249 0
M  V30 14 C 11.550832 6.235609 -7.185018 0
M  V30 15 C 11.850355 9.529141 -6.594487 0
M  V30 16 S 10.150105 7.541011 -11.185044 0
M  V30 17 H 6.887128 5.992417 -12.210858 0
M  V30 18 H 10.872232 10.204361 -4.785685 0
M  V30 19 H 12.612676 9.990142 -4.645796 0
M  V30 20 H 8.605828 7.582779 -13.029885 0
M  V30 21 H 7.835660 8.128247 -11.584996 0
M  V30 22 H 11.155110 9.634506 -9.153725 0
M  V30 23 H 11.826646 8.066450 -9.018065 0
M  V30 24 H 13.375378 8.028408 -1.560052 0
M  V30 25 H 13.675433 9.191192 -2.828454 0
M  V30 26 H 13.775407 7.444847 -3.184995 0
M  V30 27 H 9.801066 9.190212 -7.013737 0
M  V30 28 H 10.805677 6.324202 -4.506195 0
M  V30 29 H 9.261899 7.282759 -8.976252 0
M  V30 30 H 8.975413 8.901359 -9.587911 0
M  V30 31 H 8.734296 5.131873 -13.645072 0
M  V30 32 H 8.197121 3.906744 -12.504169 0
M  V30 33 H 9.704767 4.772141 -12.225327 0
M  V30 34 H 8.693168 5.436198 -10.002496 0
M  V30 35 H 7.206127 4.764692 -10.275156 0
M  V30 36 H 11.273422 9.016669 -2.492045 0
M  V30 37 H 11.367857 7.248451 -2.583144 0
M  V30 38 H 11.544723 5.278835 -6.665984 0
M  V30 39 H 12.575361 6.601751 -7.185024 0
M  V30 40 H 11.251343 6.022039 -8.209428 0
M  V30 41 H 12.832674 9.146681 -6.873079 0
M  V30 42 H 11.775405 10.549413 -6.966850 0
M  V30 43 H 7.341982 6.379252 -9.901949 0
M  V30 44 H 9.614139 6.934504 -6.649187 0
M  V30 END ATOM
M  V30 BEGIN BOND
M  V30 1 1 3 1
M  V30 2 1 6 4
M  V30 3 1 8 4
M  V30 4 1 9 6
M  V30 5 1 9 7
M  V30 6 1 10 1
M  V30 7 1 11 1
M  V30 8 1 12 2
M  V30 9 2 12 7
M  V30 10 1 13 5
M  V30 11 1 13 12
M  V30 12 1 14 9
M  V30 13 1 15 2
M  V30 14 1 15 6
M  V30 15 1 16 3
M  V30 16 1 16 8
M  V30 17 1 1 17 CFG=3
M  V30 18 1 18 2
M  V30 19 1 19 2
M  V30 20 1 20 3
M  V30 21 1 21 3
M  V30 22 1 22 4
M  V30 23 1 23 4
M  V30 24 1 24 5
M  V30 25 1 25 5
M  V30 26 1 26 5
M  V30 27 1 6 27 CFG=3
M  V30 28 1 28 7
M  V30 29 1 29 8
M  V30 30 1 30 8
M  V30 31 1 31 10
M  V30 32 1 32 10
M  V30 33 1 33 10
M  V30 34 1 34 11
M  V30 35 1 35 11
M  V30 36 1 36 13
M  V30 37 1 37 13
M  V30 38 1 38 14
M  V30 39 1 39 14
M  V30 40 1 40 14
M  V30 41 1 41 15
M  V30 42 1 42 15
M  V30 43 1 43 11
M  V30 44 1 9 44 CFG=1
M  V30 END BOND
M  V30 END CTAB
M  END
>  <i_epik_Tot_Q>  (1) 
2

>  <i_epik_Tot_abs_Q>  (1) 
2

>  <i_i_glide_confnum>  (1) 
86

>  <i_i_glide_lignum>  (1) 
22

>  <i_i_glide_posenum>  (1) 
84

>  <i_i_glide_rotatable_bonds>  (1) 
6

>  <i_lp_mmshare_version>  (1) 
72125

>  <i_m_source_file_index>  (1) 
12

>  <i_f3d_flags>  (1) 
0

>  <num_sample>  (1) 
100

>  <b_lp_Chiralities_Consistent>  (1) 
1

>  <r_epik_Charging_Adjusted_Penalty>  (1) 
0.13380573077515515

>  <r_epik_Ionization_Penalty>  (1) 
0.13380575400753034

>  <r_epik_Ionization_Penalty_Charging>  (1) 
0.0076430572427279801

>  <r_epik_Ionization_Penalty_Neutral>  (1) 
0.12616269676480235

>  <r_epik_State_Penalty>  (1) 
0.12616267353242716

>  <r_glide_ring_energy>  (1) 
0

>  <r_i_docking_score>  (1) 
-6.096610546316569

>  <r_i_glide_ecoul>  (1) 
-9.24035178797212

>  <r_i_glide_eff_state_penalty>  (1) 
0.12616267353242716

>  <r_i_glide_einternal>  (1) 
6.3906301502513205

>  <r_i_glide_emodel>  (1) 
-37.508037533849915

>  <r_i_glide_emodel_strain>  (1) 
0.32253626210130015

>  <r_i_glide_energy>  (1) 
-27.134132633715769

>  <r_i_glide_erotb>  (1) 
1.1639209444696645

>  <r_i_glide_esite>  (1) 
-0.10000000000000001

>  <r_i_glide_evdw>  (1) 
-17.893780845743649

>  <r_i_glide_gscore>  (1) 
-6.222773219848996

>  <r_i_glide_gscore_strain>  (1) 
0

>  <r_i_glide_hbond>  (1) 
-0.20000000000000001

>  <r_i_glide_ligand_efficiency>  (1) 
-0.38103815914478556

>  <r_i_glide_ligand_efficiency_ln>  (1) 
-1.6160284078612785

>  <r_i_glide_ligand_efficiency_sa>  (1) 
-0.96015599503941607

>  <r_i_glide_lipo>  (1) 
-2.0338893345154032

>  <r_i_glide_metal>  (1) 
-0

>  <r_i_glide_rewards>  (1) 
-2.7720630193202567

>  <r_lp_Energy>  (1) 
22.875516999999999

>  <s_epik_Chemistry_Notes>  (1) 
This compound has an imine and may undergo hydrolysis.

>  <s_epik_cmdline>  (1) 
J2VwaWtfcHl0aG9uJywgJy1waHQnLCAnMS4wJywgJy1waCcsICc3LjQnLCAnLXRuJywgJzgnLCAnLW1hJywgJzUwMCcsICctaW1hZScsICc8aW5maWxlLm1hZT4nLCAnLW9tYWUnLCAnPG91dGZpbGUubWFlPic=

>  <s_epik_input>  (1) 
W0NIM11bQ0BASF0oW05IMl0pW0NIMl1TW0NIMl1bQ0gyXVtDQEhdMUMoW0NIM10pPVtDSF1OKFtDSDJdW0NIMl0xKVtDSDJdW0NIM10=

>  <s_glide_docking_method>  (1) 
confgen

>  <s_i_glide_gridfile>  (1) 
gpcr_drd2_6luq_protein_autoprepared_prepared

>  <s_lp_Force_Field>  (1) 
S-OPLS

>  <s_lp_Variant>  (1) 
DiffSBDD_11-2

>  <s_m_source_file>  (1) 
generated_generic_title2_ligand_DiffSBDD_2026-06-23_prepared.sdf

>  <GenAI_Model>  (1) 
DiffSBDD

>  <Protein>  (1) 
generic_title2

$$$$
DiffSBDD_93
     RDKit          3D

  0  0  0  0  0  0  0  0  0  0999 V3000
M  V30 BEGIN CTAB
M  V30 COUNTS 69 73 0 0 1
M  V30 BEGIN ATOM
M  V30 1 C 7.803570 5.104887 -13.140380 0 CFG=1
M  V30 2 C 4.571168 8.352995 -20.261018 0
M  V30 3 C 9.963289 7.290014 -9.269206 0
M  V30 4 O 6.177309 11.258857 -23.591252 0
M  V30 5 C 7.641896 3.352624 -15.041784 0
M  V30 6 C 8.177835 3.039600 -16.454364 0
M  V30 7 C 6.870693 9.039373 -21.758710 0
M  V30 8 C 5.908793 6.975393 -13.425473 0
M  V30 9 N 8.115619 4.664119 -14.522259 0 CFG=1 CHG=1
M  V30 10 C 6.950770 8.000320 -20.794007 0
M  V30 11 C 4.552018 9.362828 -21.226870 0
M  V30 12 C 8.608098 4.898346 -9.877081 0
M  V30 13 C 9.156728 5.090958 -12.365385 0 CFG=1
M  V30 14 C 5.369030 10.743267 -22.826321 0
M  V30 15 C 9.882416 6.850212 -10.604870 0
M  V30 16 C 5.775255 7.551371 -12.008000 0
M  V30 17 O 10.175376 5.590229 -13.219705 0
M  V30 18 C 7.310366 6.439781 -13.738214 0 CFG=2
M  V30 19 C 5.782668 7.653719 -20.030129 0
M  V30 20 C 5.638949 9.683705 -21.926936 0
M  V30 21 C 9.375411 6.534555 -8.240038 0
M  V30 22 N 4.072764 11.060450 -22.656844 0
M  V30 23 C 3.319308 10.218620 -21.598526 0
M  V30 24 C 7.115729 6.098185 -18.684473 0
M  V30 25 N 5.814730 6.637686 -19.057690 0
M  V30 26 C 7.617348 5.894776 -15.138454 0 CFG=2
M  V30 27 C 6.974378 5.071485 -17.543334 0 CFG=2
M  V30 28 C 9.208980 5.633825 -10.915708 0
M  V30 29 C 6.522063 5.731634 -16.203473 0
M  V30 30 O 10.461532 7.590227 -11.585143 0
M  V30 31 C 6.751132 4.203508 -12.460880 0
M  V30 32 C 8.262478 4.230611 -17.427423 0
M  V30 33 C 8.691781 5.344393 -8.544440 0
M  V30 34 H 3.682723 8.114551 -19.699651 0
M  V30 35 H 10.479657 8.208974 -9.035133 0
M  V30 36 H 6.557017 3.300888 -15.044434 0
M  V30 37 H 7.976594 2.563407 -14.367910 0
M  V30 38 H 9.171955 2.598154 -16.385027 0
M  V30 39 H 7.548163 2.263430 -16.891512 0
M  V30 40 H 7.734484 9.324718 -22.343094 0
M  V30 41 H 5.158486 6.197452 -13.560952 0
M  V30 42 H 5.643445 7.741750 -14.151883 0
M  V30 43 H 7.884602 7.484173 -20.639579 0
M  V30 44 H 8.088091 3.990254 -10.100493 0
M  V30 45 H 9.442913 4.043951 -12.248218 0
M  V30 46 H 4.791976 7.998601 -11.855204 0
M  V30 47 H 6.522618 8.321949 -11.817200 0
M  V30 48 H 5.902526 6.785638 -11.244222 0
M  V30 49 H 10.931821 5.002686 -13.184998 0
M  V30 50 H 8.044552 7.216114 -13.514837 0
M  V30 51 H 9.437617 6.874756 -7.217564 0
M  V30 52 H 3.611272 11.790302 -23.178921 0
M  V30 53 H 2.532350 9.612319 -22.044459 0
M  V30 54 H 2.949829 10.807797 -20.758883 0
M  V30 55 H 7.542698 5.603225 -19.557753 0
M  V30 56 H 7.794781 6.899354 -18.388943 0
M  V30 57 H 5.025055 6.497466 -18.444959 0
M  V30 58 H 8.490907 6.390198 -15.550478 0
M  V30 59 H 6.186641 4.390530 -17.868232 0
M  V30 60 H 5.677878 5.191105 -15.784210 0
M  V30 61 H 6.105946 6.715593 -16.416482 0
M  V30 62 H 10.422477 7.109977 -12.407675 0
M  V30 63 H 6.430362 4.609409 -11.503559 0
M  V30 64 H 7.129918 3.198693 -12.273232 0
M  V30 65 H 5.843198 4.099787 -13.055265 0
M  V30 66 H 9.106639 4.870749 -17.166365 0
M  V30 67 H 8.513799 3.830917 -18.410767 0
M  V30 68 H 8.229919 4.771776 -7.754602 0
M  V30 69 H 9.126077 4.700375 -14.580081 0
M  V30 END ATOM
M  V30 BEGIN BOND
M  V30 1 1 6 5
M  V30 2 1 9 1
M  V30 3 1 9 5
M  V30 4 2 10 7
M  V30 5 1 11 2
M  V30 6 1 13 1
M  V30 7 2 14 4
M  V30 8 2 15 3
M  V30 9 1 16 8
M  V30 10 1 17 13
M  V30 11 1 18 1
M  V30 12 1 18 8
M  V30 13 2 19 2
M  V30 14 1 19 10
M  V30 15 1 20 7
M  V30 16 2 20 11
M  V30 17 1 20 14
M  V30 18 1 21 3
M  V30 19 1 22 14
M  V30 20 1 23 11
M  V30 21 1 23 22
M  V30 22 1 25 19
M  V30 23 1 25 24
M  V30 24 1 26 9
M  V30 25 1 26 18
M  V30 26 1 27 24
M  V30 27 2 28 12
M  V30 28 1 28 13
M  V30 29 1 28 15
M  V30 30 1 29 26
M  V30 31 1 29 27
M  V30 32 1 30 15
M  V30 33 1 1 31 CFG=1
M  V30 34 1 32 6
M  V30 35 1 32 27
M  V30 36 1 33 12
M  V30 37 2 33 21
M  V30 38 1 34 2
M  V30 39 1 35 3
M  V30 40 1 36 5
M  V30 41 1 37 5
M  V30 42 1 38 6
M  V30 43 1 39 6
M  V30 44 1 40 7
M  V30 45 1 41 8
M  V30 46 1 42 8
M  V30 47 1 43 10
M  V30 48 1 44 12
M  V30 49 1 13 45 CFG=1
M  V30 50 1 46 16
M  V30 51 1 47 16
M  V30 52 1 48 16
M  V30 53 1 49 17
M  V30 54 1 18 50 CFG=1
M  V30 55 1 51 21
M  V30 56 1 52 22
M  V30 57 1 53 23
M  V30 58 1 54 23
M  V30 59 1 55 24
M  V30 60 1 56 24
M  V30 61 1 57 25
M  V30 62 1 26 58 CFG=3
M  V30 63 1 27 59 CFG=3
M  V30 64 1 60 29
M  V30 65 1 61 29
M  V30 66 1 62 30
M  V30 67 1 63 31
M  V30 68 1 64 31
M  V30 69 1 65 31
M  V30 70 1 66 32
M  V30 71 1 67 32
M  V30 72 1 68 33
M  V30 73 1 9 69 CFG=1
M  V30 END BOND
M  V30 END CTAB
M  END
>  <i_epik_Tot_Q>  (1) 
1

>  <i_epik_Tot_abs_Q>  (1) 
1

>  <i_i_glide_confnum>  (1) 
105

>  <i_i_glide_lignum>  (1) 
176

>  <i_i_glide_posenum>  (1) 
41

>  <i_i_glide_rotatable_bonds>  (1) 
8

>  <i_lp_mmshare_version>  (1) 
72125

>  <i_m_source_file_index>  (1) 
94

>  <i_f3d_flags>  (1) 
0

>  <num_sample>  (1) 
100

>  <b_lp_Chiralities_Consistent>  (1) 
1

>  <r_epik_Charging_Adjusted_Penalty>  (1) 
0.009895405337619817

>  <r_epik_Ionization_Penalty>  (1) 
0.010018489252536679

>  <r_epik_Ionization_Penalty_Charging>  (1) 
0.00060073207358730301

>  <r_epik_Ionization_Penalty_Neutral>  (1) 
0.0094177571789493767

>  <r_epik_State_Penalty>  (1) 
0.0092946732640325144

>  <r_glide_ring_energy>  (1) 
0

>  <r_i_docking_score>  (1) 
-6.0818364746378135

>  <r_i_glide_ecoul>  (1) 
-6.724270482541213

>  <r_i_glide_eff_state_penalty>  (1) 
0.0092946732640325144

>  <r_i_glide_einternal>  (1) 
7.4784067676416814

>  <r_i_glide_emodel>  (1) 
-35.749193797394632

>  <r_i_glide_emodel_strain>  (1) 
2.9036748027833994

>  <r_i_glide_energy>  (1) 
-40.80590349421886

>  <r_i_glide_erotb>  (1) 
0.49373930985115227

>  <r_i_glide_esite>  (1) 
0

>  <r_i_glide_evdw>  (1) 
-34.081633011677646

>  <r_i_glide_gscore>  (1) 
-6.0911311479018462

>  <r_i_glide_gscore_strain>  (1) 
0

>  <r_i_glide_hbond>  (1) 
-0.32000000000000001

>  <r_i_glide_ligand_efficiency>  (1) 
-0.18429807498902465

>  <r_i_glide_ligand_efficiency_ln>  (1) 
-1.352568941895496

>  <r_i_glide_ligand_efficiency_sa>  (1) 
-0.59114240247944183

>  <r_i_glide_lipo>  (1) 
-2.513564440774545

>  <r_i_glide_metal>  (1) 
-0

>  <r_i_glide_rewards>  (1) 
-1.0385837940133891

>  <r_lp_Energy>  (1) 
50.168202999999998

>  <r_lp_tautomer_probability>  (1) 
0.99999999999736477

>  <s_epik_cmdline>  (1) 
J2VwaWtfcHl0aG9uJywgJy1waHQnLCAnMS4wJywgJy1waCcsICc3LjQnLCAnLXRuJywgJzgnLCAnLW1hJywgJzUwMCcsICctaW1hZScsICc8aW5maWxlLm1hZT4nLCAnLW9tYWUnLCAnPG91dGZpbGUubWFlPic=

>  <s_epik_input>  (1) 
W09IXWMxW2NIXVtjSF1bY0hdW2NIXWMxW0NASF0oW09IXSlbQ0BAXTIoW0NIM10pW0NASF0oW0NIMl1bQ0gzXSlbQ0BASF0oTjIzKVtDSDJdW0NASF0oW0NIMl1bQ0gyXVtDSDJdMylbQ0gyXVtOSF1jKFtjSF00KVtjSF1bY0hdYyhjNDUpQyg9TylbTkhdW0NIMl01

>  <s_glide_docking_method>  (1) 
confgen

>  <s_i_glide_gridfile>  (1) 
gpcr_drd2_6luq_protein_autoprepared_prepared

>  <s_lp_Force_Field>  (1) 
S-OPLS

>  <s_lp_Variant>  (1) 
DiffSBDD_93-1

>  <s_m_source_file>  (1) 
generated_generic_title2_ligand_DiffSBDD_2026-06-23_prepared.sdf

>  <GenAI_Model>  (1) 
DiffSBDD

>  <Protein>  (1) 
generic_title2

$$$$
DiffSBDD_20
     RDKit          3D

  0  0  0  0  0  0  0  0  0  0999 V3000
M  V30 BEGIN CTAB
M  V30 COUNTS 63 66 0 0 1
M  V30 BEGIN ATOM
M  V30 1 C 11.767633 9.515045 -5.258516 0
M  V30 2 C 6.917226 5.144334 -14.308288 0 CFG=2
M  V30 3 O 7.290608 1.546364 -16.426467 0
M  V30 4 O 6.372821 7.984501 -11.985024 0
M  V30 5 C 6.914163 3.792968 -13.638443 0
M  V30 6 O 8.053238 0.393625 -13.795383 0
M  V30 7 C 8.301946 5.641772 -14.568052 0 CFG=2
M  V30 8 C 11.099092 6.790223 -4.976522 0
M  V30 9 N 8.351756 6.937441 -12.498794 0
M  V30 10 C 8.435963 3.551418 -16.237225 0
M  V30 11 C 4.575049 0.390224 -14.024275 0
M  V30 12 C 12.094058 8.830697 -4.152040 0
M  V30 13 C 11.775410 7.424601 -3.995949 0
M  V30 14 C 9.103663 7.399263 -11.330431 0
M  V30 15 C 12.184142 6.680582 -2.739890 0
M  V30 16 C 9.076702 4.750338 -15.527751 0
M  V30 17 C 6.927538 6.748612 -12.299546 0 CFG=2
M  V30 18 C 7.205015 2.624685 -14.253694 0
M  V30 19 C 7.034838 1.320050 -13.481816 0 CFG=1
M  V30 20 C 6.139245 6.222835 -13.534731 0
M  V30 21 C 10.619651 7.435803 -6.245489 0 CFG=2
M  V30 22 C 9.031769 5.867640 -13.223407 0
M  V30 23 C 7.653043 2.590570 -15.668373 0
M  V30 24 C 10.328375 6.575518 -7.485611 0 CFG=2
M  V30 25 C 5.697460 0.767120 -13.733562 0
M  V30 26 C 11.050152 8.898130 -6.445174 0
M  V30 27 S 9.375410 6.108169 -10.069717 0
M  V30 28 C 5.022296 7.990149 -11.554742 0
M  V30 29 C 10.396982 7.085202 -8.917238 0
M  V30 30 C 9.201234 7.069761 -6.633193 0
M  V30 31 H 12.021954 10.560898 -5.336717 0
M  V30 32 H 6.396741 5.027367 -15.260135 0
M  V30 33 H 6.808190 0.945814 -15.875586 0
M  V30 34 H 6.588638 3.776673 -12.608027 0
M  V30 35 H 8.688735 0.824280 -14.346433 0
M  V30 36 H 8.175410 6.603943 -15.066029 0
M  V30 37 H 10.860950 5.744337 -4.852674 0
M  V30 38 H 8.713597 3.433128 -17.275046 0
M  V30 39 H 3.608524 0.068141 -14.330851 0
M  V30 40 H 12.610171 9.343672 -3.352890 0
M  V30 41 H 10.072958 7.771517 -11.662099 0
M  V30 42 H 8.588317 8.243981 -10.872371 0
M  V30 43 H 12.975411 7.212410 -2.213684 0
M  V30 44 H 11.331087 6.591374 -2.066781 0
M  V30 45 H 12.536953 5.674631 -2.963014 0
M  V30 46 H 9.454370 5.393261 -16.323942 0
M  V30 47 H 9.980795 4.390242 -15.039943 0
M  V30 48 H 6.788493 6.075389 -11.450796 0
M  V30 49 H 7.097815 1.515202 -12.411073 0
M  V30 50 H 5.958126 7.068539 -14.200719 0
M  V30 51 H 5.164003 5.850584 -13.223441 0
M  V30 52 H 10.074678 6.137145 -13.389700 0
M  V30 53 H 9.051223 4.953803 -12.628655 0
M  V30 54 H 10.582884 5.522414 -7.393977 0
M  V30 55 H 11.714523 8.964824 -7.307044 0
M  V30 56 H 10.175715 9.507510 -6.667223 0
M  V30 57 H 4.889930 8.745060 -10.785049 0
M  V30 58 H 4.382535 8.275985 -12.385019 0
M  V30 59 H 4.699367 7.037634 -11.132730 0
M  V30 60 H 11.431713 7.083629 -9.258493 0
M  V30 61 H 10.049162 8.118159 -8.945125 0
M  V30 62 H 8.575389 7.860782 -7.037252 0
M  V30 63 H 8.672250 6.323983 -6.044295 0
M  V30 END ATOM
M  V30 BEGIN BOND
M  V30 1 1 5 2
M  V30 2 1 7 2
M  V30 3 2 12 1
M  V30 4 2 13 8
M  V30 5 1 13 12
M  V30 6 1 14 9
M  V30 7 1 15 13
M  V30 8 1 16 7
M  V30 9 1 16 10
M  V30 10 1 17 4
M  V30 11 1 17 9
M  V30 12 2 18 5
M  V30 13 1 19 6
M  V30 14 1 19 18
M  V30 15 1 20 2
M  V30 16 1 20 17
M  V30 17 1 21 8
M  V30 18 1 22 7
M  V30 19 1 22 9
M  V30 20 1 23 3
M  V30 21 2 23 10
M  V30 22 1 23 18
M  V30 23 1 24 21
M  V30 24 3 25 11
M  V30 25 1 25 19
M  V30 26 1 26 1
M  V30 27 1 21 26 CFG=3
M  V30 28 1 27 14
M  V30 29 1 28 4
M  V30 30 1 29 24
M  V30 31 1 29 27
M  V30 32 1 30 21
M  V30 33 1 30 24
M  V30 34 1 31 1
M  V30 35 1 2 32 CFG=3
M  V30 36 1 33 3
M  V30 37 1 34 5
M  V30 38 1 35 6
M  V30 39 1 7 36 CFG=3
M  V30 40 1 37 8
M  V30 41 1 38 10
M  V30 42 1 39 11
M  V30 43 1 40 12
M  V30 44 1 41 14
M  V30 45 1 42 14
M  V30 46 1 43 15
M  V30 47 1 44 15
M  V30 48 1 45 15
M  V30 49 1 46 16
M  V30 50 1 47 16
M  V30 51 1 17 48 CFG=1
M  V30 52 1 19 49 CFG=1
M  V30 53 1 50 20
M  V30 54 1 51 20
M  V30 55 1 52 22
M  V30 56 1 53 22
M  V30 57 1 24 54 CFG=3
M  V30 58 1 55 26
M  V30 59 1 56 26
M  V30 60 1 57 28
M  V30 61 1 58 28
M  V30 62 1 59 28
M  V30 63 1 60 29
M  V30 64 1 61 29
M  V30 65 1 62 30
M  V30 66 1 63 30
M  V30 END BOND
M  V30 END CTAB
M  END
>  <i_epik_Tot_Q>  (1) 
0

>  <i_epik_Tot_abs_Q>  (1) 
0

>  <i_i_glide_confnum>  (1) 
86

>  <i_i_glide_lignum>  (1) 
37

>  <i_i_glide_posenum>  (1) 
26

>  <i_i_glide_rotatable_bonds>  (1) 
9

>  <i_lp_mmshare_version>  (1) 
72125

>  <i_m_source_file_index>  (1) 
21

>  <i_f3d_flags>  (1) 
0

>  <num_sample>  (1) 
100

>  <b_lp_Chiralities_Consistent>  (1) 
1

>  <r_epik_Charging_Adjusted_Penalty>  (1) 
0.01950513855595163

>  <r_epik_Ionization_Penalty>  (1) 
0.020135141086582313

>  <r_epik_Ionization_Penalty_Charging>  (1) 
0

>  <r_epik_Ionization_Penalty_Neutral>  (1) 
0.020135141086582313

>  <r_epik_State_Penalty>  (1) 
0.01950513855595163

>  <r_glide_ring_energy>  (1) 
0.0008246989819377348

>  <r_i_docking_score>  (1) 
-6.0815546451073121

>  <r_i_glide_ecoul>  (1) 
0.2117813358153452

>  <r_i_glide_eff_state_penalty>  (1) 
0.01950513855595163

>  <r_i_glide_einternal>  (1) 
12.421712346087686

>  <r_i_glide_emodel>  (1) 
-42.507203270090493

>  <r_i_glide_emodel_strain>  (1) 
2.3382256920992575

>  <r_i_glide_energy>  (1) 
-41.770029816051128

>  <r_i_glide_erotb>  (1) 
0.65156125310283941

>  <r_i_glide_esite>  (1) 
-0.071756818929444147

>  <r_i_glide_evdw>  (1) 
-41.981811151866474

>  <r_i_glide_gscore>  (1) 
-6.1010597836632634

>  <r_i_glide_gscore_strain>  (1) 
0

>  <r_i_glide_hbond>  (1) 
0

>  <r_i_glide_ligand_efficiency>  (1) 
-0.20271848817024374

>  <r_i_glide_ligand_efficiency_ln>  (1) 
-1.3817954792135572

>  <r_i_glide_ligand_efficiency_sa>  (1) 
-0.62989347600040424

>  <r_i_glide_lipo>  (1) 
-3.4028688834338219

>  <r_i_glide_metal>  (1) 
-0

>  <r_i_glide_rewards>  (1) 
-1.2106719771818142

>  <r_lp_Energy>  (1) 
31.117341

>  <s_epik_Chemistry_Notes>  (1) 
This compound contains an acetal/aminal-like group ( X-CH(R)-Y where X, Y are N, S, or O) that may be acid/base labile, releasing an aldehyde.

>  <s_epik_cmdline>  (1) 
J2VwaWtfcHl0aG9uJywgJy1waHQnLCAnMS4wJywgJy1waCcsICc3LjQnLCAnLXRuJywgJzgnLCAnLW1hJywgJzUwMCcsICctaW1hZScsICc8aW5maWxlLm1hZT4nLCAnLW9tYWUnLCAnPG91dGZpbGUubWFlPic=

>  <s_epik_input>  (1) 
W0NIMl0xW0NIXT1bQ0hdQyhbQ0gzXSk9W0NIXVtDQF0xMltDQEBIXShbQ0gyXTIpW0NIMl1TW0NIMl1OKFtDQEhdKFtDSDJdMylPW0NIM10pW0NIMl1bQ0BIXShbQ0BIXTM0KVtDSDJdW0NIXT1DKFtPSF0pQyg9W0NIXTQpW0NASF0oW09IXSlDI1tDSF0=

>  <s_glide_docking_method>  (1) 
confgen

>  <s_i_glide_gridfile>  (1) 
gpcr_drd2_6luq_protein_autoprepared_prepared

>  <s_lp_Force_Field>  (1) 
S-OPLS

>  <s_lp_Variant>  (1) 
DiffSBDD_20-1

>  <s_m_source_file>  (1) 
generated_generic_title2_ligand_DiffSBDD_2026-06-23_prepared.sdf

>  <GenAI_Model>  (1) 
DiffSBDD

>  <Protein>  (1) 
generic_title2

$$$$
DiffSBDD_79
     RDKit          3D

  0  0  0  0  0  0  0  0  0  0999 V3000
M  V30 BEGIN CTAB
M  V30 COUNTS 53 56 0 0 1
M  V30 BEGIN ATOM
M  V30 1 C 7.825747 5.703769 -14.497099 0
M  V30 2 C 11.375409 6.930218 -5.815742 0 CFG=2
M  V30 3 C 5.410924 5.616934 -14.527092 0
M  V30 4 C 9.659842 6.323326 -9.710101 0
M  V30 5 C 11.353660 7.937366 -6.959726 0
M  V30 6 C 7.315175 7.099369 -14.074166 0
M  V30 7 C 5.782631 7.044083 -14.121567 0
M  V30 8 N 10.670651 7.782924 -8.031989 0
M  V30 9 C 8.733016 4.828468 -11.401785 0
M  V30 10 C 9.835910 6.690465 -8.266901 0
M  V30 11 C 12.175411 6.604416 -3.320472 0
M  V30 12 C 10.196219 6.844872 -4.907904 0
M  V30 13 C 10.107211 6.730628 -12.071663 0
M  V30 14 C 12.430003 9.619914 -5.267947 0
M  V30 15 C 9.337843 5.596669 -12.413326 0
M  V30 16 C 10.264659 7.097040 -10.727378 0
M  V30 17 C 11.567748 8.939433 -4.189302 0 CFG=1
M  V30 18 C 9.153822 5.209015 -13.870095 0
M  V30 19 C 12.221007 9.168587 -6.739072 0
M  V30 20 C 11.479765 7.428469 -4.385420 0 CFG=2
M  V30 21 C 6.642152 4.770983 -14.227270 0
M  V30 22 C 8.890743 5.190230 -10.055444 0
M  V30 23 O 9.260583 6.022248 -7.407101 0
M  V30 24 C 11.948420 9.352293 -2.753565 0
M  V30 25 H 7.957864 5.712971 -15.579918 0
M  V30 26 H 11.885158 6.008024 -6.091761 0
M  V30 27 H 5.193106 5.590234 -15.595163 0
M  V30 28 H 4.542929 5.244884 -13.985031 0
M  V30 29 H 7.608990 7.369153 -13.060751 0
M  V30 30 H 7.701610 7.876474 -14.730507 0
M  V30 31 H 5.374534 7.775555 -14.819796 0
M  V30 32 H 5.375434 7.273150 -13.135518 0
M  V30 33 H 8.146338 3.960007 -11.658946 0
M  V30 34 H 13.205890 6.930856 -3.183670 0
M  V30 35 H 11.647041 6.655834 -2.368963 0
M  V30 36 H 12.175411 5.563707 -3.618446 0
M  V30 37 H 9.904058 5.886156 -4.508922 0
M  V30 38 H 9.377426 7.502629 -5.185025 0
M  V30 39 H 10.574903 7.319596 -12.839537 0
M  V30 40 H 13.486854 9.539843 -5.008190 0
M  V30 41 H 12.175410 10.679618 -5.231900 0
M  V30 42 H 10.854140 7.966059 -10.477571 0
M  V30 43 H 10.575411 9.338212 -4.378285 0
M  V30 44 H 9.999818 5.590224 -14.441510 0
M  V30 45 H 9.219021 4.124704 -13.955194 0
M  V30 46 H 13.189785 8.992522 -7.206790 0
M  V30 47 H 11.775412 9.990249 -7.296118 0
M  V30 48 H 6.677034 3.861228 -14.826583 0
M  V30 49 H 6.612457 4.474633 -13.180541 0
M  V30 50 H 8.423629 4.596259 -9.283556 0
M  V30 51 H 13.006859 9.190219 -2.548278 0
M  V30 52 H 11.736321 10.392436 -2.576326 0
M  V30 53 H 11.375412 8.816553 -1.998635 0
M  V30 END ATOM
M  V30 BEGIN BOND
M  V30 1 1 5 2
M  V30 2 1 6 1
M  V30 3 1 7 3
M  V30 4 1 7 6
M  V30 5 2 8 5
M  V30 6 1 10 4
M  V30 7 1 10 8
M  V30 8 1 12 2
M  V30 9 1 15 9
M  V30 10 2 15 13
M  V30 11 2 16 4
M  V30 12 1 16 13
M  V30 13 1 17 14
M  V30 14 1 18 1
M  V30 15 1 18 15
M  V30 16 1 19 5
M  V30 17 1 19 14
M  V30 18 1 20 2
M  V30 19 1 20 11 CFG=1
M  V30 20 1 20 12
M  V30 21 1 20 17
M  V30 22 1 21 1
M  V30 23 1 21 3
M  V30 24 1 22 4
M  V30 25 2 22 9
M  V30 26 2 23 10
M  V30 27 1 24 17
M  V30 28 1 25 1
M  V30 29 1 2 26 CFG=3
M  V30 30 1 27 3
M  V30 31 1 28 3
M  V30 32 1 29 6
M  V30 33 1 30 6
M  V30 34 1 31 7
M  V30 35 1 32 7
M  V30 36 1 33 9
M  V30 37 1 34 11
M  V30 38 1 35 11
M  V30 39 1 36 11
M  V30 40 1 37 12
M  V30 41 1 38 12
M  V30 42 1 39 13
M  V30 43 1 40 14
M  V30 44 1 41 14
M  V30 45 1 42 16
M  V30 46 1 17 43 CFG=3
M  V30 47 1 44 18
M  V30 48 1 45 18
M  V30 49 1 46 19
M  V30 50 1 47 19
M  V30 51 1 48 21
M  V30 52 1 49 21
M  V30 53 1 50 22
M  V30 54 1 51 24
M  V30 55 1 52 24
M  V30 56 1 53 24
M  V30 END BOND
M  V30 END CTAB
M  END
>  <i_epik_Tot_Q>  (1) 
0

>  <i_epik_Tot_abs_Q>  (1) 
0

>  <i_i_glide_confnum>  (1) 
93

>  <i_i_glide_lignum>  (1) 
138

>  <i_i_glide_posenum>  (1) 
1

>  <i_i_glide_rotatable_bonds>  (1) 
4

>  <i_lp_mmshare_version>  (1) 
72125

>  <i_m_source_file_index>  (1) 
80

>  <i_f3d_flags>  (1) 
0

>  <num_sample>  (1) 
100

>  <b_lp_Chiralities_Consistent>  (1) 
1

>  <r_epik_Charging_Adjusted_Penalty>  (1) 
0

>  <r_epik_Ionization_Penalty>  (1) 
0

>  <r_epik_Ionization_Penalty_Charging>  (1) 
0

>  <r_epik_Ionization_Penalty_Neutral>  (1) 
0

>  <r_epik_State_Penalty>  (1) 
-0

>  <r_glide_ring_energy>  (1) 
0

>  <r_i_docking_score>  (1) 
-6.0703770573541007

>  <r_i_glide_ecoul>  (1) 
0.91545614778626327

>  <r_i_glide_eff_state_penalty>  (1) 
-0

>  <r_i_glide_einternal>  (1) 
0.91359596589204539

>  <r_i_glide_emodel>  (1) 
-39.730590654513577

>  <r_i_glide_emodel_strain>  (1) 
2.1099438818988716

>  <r_i_glide_energy>  (1) 
-32.78822226973503

>  <r_i_glide_erotb>  (1) 
0.71538486133248902

>  <r_i_glide_esite>  (1) 
-0.064355485815564731

>  <r_i_glide_evdw>  (1) 
-33.703678417521296

>  <r_i_glide_gscore>  (1) 
-6.0703770573541007

>  <r_i_glide_gscore_strain>  (1) 
0

>  <r_i_glide_hbond>  (1) 
0

>  <r_i_glide_ligand_efficiency>  (1) 
-0.25293237738975421

>  <r_i_glide_ligand_efficiency_ln>  (1) 
-1.4529197812773427

>  <r_i_glide_ligand_efficiency_sa>  (1) 
-0.72958322521440855

>  <r_i_glide_lipo>  (1) 
-2.9019390672206224

>  <r_i_glide_metal>  (1) 
-0

>  <r_i_glide_rewards>  (1) 
-2.2716018669422775

>  <r_lp_Energy>  (1) 
51.233270999999995

>  <r_lp_tautomer_probability>  (1) 
1

>  <s_epik_Chemistry_Notes>  (1) 
This compound has an imine and may undergo hydrolysis.

>  <s_epik_cmdline>  (1) 
J2VwaWtfcHl0aG9uJywgJy1waHQnLCAnMS4wJywgJy1waCcsICc3LjQnLCAnLXRuJywgJzgnLCAnLW1hJywgJzUwMCcsICctaW1hZScsICc8aW5maWxlLm1hZT4nLCAnLW9tYWUnLCAnPG91dGZpbGUubWFlPic=

>  <s_epik_input>  (1) 
W0NIMl0xW0NIMl1bQ0gyXVtDSDJdW0NIXTFbQ0gyXWMoW2NIXVtjSF0yKVtjSF1bY0hdYzJDKD1PKS9OPUMoXFtDQEhdKFtDSDJdMylDMzRbQ0gzXSlbQ0gyXVtDSDJdW0NAQEhdNFtDSDNd

>  <s_glide_docking_method>  (1) 
confgen

>  <s_i_glide_gridfile>  (1) 
gpcr_drd2_6luq_protein_autoprepared_prepared

>  <s_lp_Force_Field>  (1) 
S-OPLS

>  <s_lp_Variant>  (1) 
DiffSBDD_79-2

>  <s_m_source_file>  (1) 
generated_generic_title2_ligand_DiffSBDD_2026-06-23_prepared.sdf

>  <GenAI_Model>  (1) 
DiffSBDD

>  <Protein>  (1) 
generic_title2

$$$$
DiffSBDD_83
     RDKit          3D

  0  0  0  0  0  0  0  0  0  0999 V3000
M  V30 BEGIN CTAB
M  V30 COUNTS 45 47 0 0 1
M  V30 BEGIN ATOM
M  V30 1 C 11.071399 7.825657 -6.467365 0
M  V30 2 C 6.040862 6.538715 -17.060692 0
M  V30 3 C 5.964851 7.042319 -14.674052 0
M  V30 4 C 8.128782 4.702013 -12.836978 0
M  V30 5 F 7.577343 4.890964 -17.863089 0
M  V30 6 C 5.496871 7.264704 -15.985548 0
M  V30 7 C 7.526687 5.366439 -15.519479 0
M  V30 8 C 10.854332 7.210703 -8.689592 0 CFG=1
M  V30 9 C 7.054222 5.589314 -16.828085 0
M  V30 10 N 11.749893 8.734125 -7.009995 0
M  V30 11 N 8.975431 6.790260 -10.441137 0 CFG=1 CHG=1
M  V30 12 C 10.489992 6.717822 -7.274383 0 CFG=2
M  V30 13 C 6.979529 6.097128 -14.433064 0
M  V30 14 C 9.007193 6.478208 -6.955775 0
M  V30 15 C 9.761947 7.869095 -11.031211 0
M  V30 16 O 7.428312 5.900562 -13.139654 0
M  V30 17 C 8.291697 4.536387 -11.319740 0
M  V30 18 F 5.589709 6.753492 -18.319301 0
M  V30 19 C 13.224350 8.272788 -8.910177 0
M  V30 20 C 9.395174 5.394977 -10.687044 0
M  V30 21 C 9.678564 7.693701 -9.535275 0 CFG=2
M  V30 22 C 11.780562 8.445321 -8.431370 0 CFG=1
M  V30 23 H 10.872759 7.795714 -5.392291 0
M  V30 24 H 5.542471 7.595307 -13.850112 0
M  V30 25 H 9.109350 4.688209 -13.315236 0
M  V30 26 H 7.564108 3.849067 -13.218219 0
M  V30 27 H 4.718438 7.992412 -16.165041 0
M  V30 28 H 8.306007 4.640463 -15.354152 0
M  V30 29 H 11.375466 6.394346 -9.185937 0
M  V30 30 H 8.892007 6.008817 -5.979632 0
M  V30 31 H 8.462516 7.420348 -6.923010 0
M  V30 32 H 8.529789 5.825545 -7.686139 0
M  V30 33 H 9.090389 8.552766 -11.546840 0
M  V30 34 H 10.635928 7.512492 -11.572697 0
M  V30 35 H 8.606053 3.505895 -11.185111 0
M  V30 36 H 7.339897 4.645951 -10.797966 0
M  V30 37 H 13.272912 7.990773 -9.961455 0
M  V30 38 H 13.781844 9.189004 -8.785201 0
M  V30 39 H 13.774836 7.558324 -8.320454 0
M  V30 40 H 10.223687 5.374132 -11.381929 0
M  V30 41 H 9.705262 4.932793 -9.749857 0
M  V30 42 H 8.980636 8.360997 -9.030496 0
M  V30 43 H 11.386558 9.316546 -8.959279 0
M  V30 44 H 7.982254 6.978014 -10.268979 0
M  V30 45 H 11.054906 5.809667 -7.059221 0
M  V30 END ATOM
M  V30 BEGIN BOND
M  V30 1 1 6 2
M  V30 2 2 6 3
M  V30 3 2 9 2
M  V30 4 1 9 5
M  V30 5 1 9 7
M  V30 6 2 10 1
M  V30 7 1 12 1
M  V30 8 1 12 8
M  V30 9 1 13 3
M  V30 10 2 13 7
M  V30 11 1 14 12
M  V30 12 1 15 11
M  V30 13 1 16 4
M  V30 14 1 16 13
M  V30 15 1 17 4
M  V30 16 1 18 2
M  V30 17 1 20 11
M  V30 18 1 20 17
M  V30 19 1 21 8
M  V30 20 1 21 11
M  V30 21 1 21 15
M  V30 22 1 22 8
M  V30 23 1 22 10
M  V30 24 1 22 19
M  V30 25 1 23 1
M  V30 26 1 24 3
M  V30 27 1 25 4
M  V30 28 1 26 4
M  V30 29 1 27 6
M  V30 30 1 28 7
M  V30 31 1 8 29 CFG=3
M  V30 32 1 30 14
M  V30 33 1 31 14
M  V30 34 1 32 14
M  V30 35 1 33 15
M  V30 36 1 34 15
M  V30 37 1 35 17
M  V30 38 1 36 17
M  V30 39 1 37 19
M  V30 40 1 38 19
M  V30 41 1 39 19
M  V30 42 1 40 20
M  V30 43 1 41 20
M  V30 44 1 21 42 CFG=1
M  V30 45 1 22 43 CFG=3
M  V30 46 1 11 44 CFG=1
M  V30 47 1 12 45 CFG=1
M  V30 END BOND
M  V30 END CTAB
M  END
>  <i_epik_Tot_Q>  (1) 
1

>  <i_epik_Tot_abs_Q>  (1) 
1

>  <i_i_glide_confnum>  (1) 
78

>  <i_i_glide_lignum>  (1) 
147

>  <i_i_glide_posenum>  (1) 
123

>  <i_i_glide_rotatable_bonds>  (1) 
6

>  <i_lp_mmshare_version>  (1) 
72125

>  <i_m_source_file_index>  (1) 
84

>  <i_f3d_flags>  (1) 
0

>  <num_sample>  (1) 
100

>  <b_lp_Chiralities_Consistent>  (1) 
1

>  <r_epik_Charging_Adjusted_Penalty>  (1) 
0.43105765877043739

>  <r_epik_Ionization_Penalty>  (1) 
0.36079924242796862

>  <r_epik_Ionization_Penalty_Charging>  (1) 
0.10499320228047652

>  <r_epik_Ionization_Penalty_Neutral>  (1) 
0.25580604014749209

>  <r_epik_State_Penalty>  (1) 
0.32606445648996085

>  <r_glide_ring_energy>  (1) 
0

>  <r_i_docking_score>  (1) 
-6.0643370930959799

>  <r_i_glide_ecoul>  (1) 
-7.881918339638057

>  <r_i_glide_eff_state_penalty>  (1) 
0.32606445648996085

>  <r_i_glide_einternal>  (1) 
4.5099640334983331

>  <r_i_glide_emodel>  (1) 
-50.098747696126864

>  <r_i_glide_emodel_strain>  (1) 
0.23187559498018118

>  <r_i_glide_energy>  (1) 
-33.713718235927409

>  <r_i_glide_erotb>  (1) 
0.96718860002963114

>  <r_i_glide_esite>  (1) 
-0.10000000000000001

>  <r_i_glide_evdw>  (1) 
-25.831799896289354

>  <r_i_glide_gscore>  (1) 
-6.390401549585941

>  <r_i_glide_gscore_strain>  (1) 
0

>  <r_i_glide_hbond>  (1) 
-0.18127792472004581

>  <r_i_glide_ligand_efficiency>  (1) 
-0.27565168604981727

>  <r_i_glide_ligand_efficiency_ln>  (1) 
-1.4823451876227283

>  <r_i_glide_ligand_efficiency_sa>  (1) 
-0.77238686587305894

>  <r_i_glide_lipo>  (1) 
-1.8830526826647798

>  <r_i_glide_metal>  (1) 
-0

>  <r_i_glide_rewards>  (1) 
-2.7193817964705702

>  <r_lp_Energy>  (1) 
26.820309999999999

>  <r_lp_tautomer_probability>  (1) 
0.99998600000000004

>  <s_epik_Chemistry_Notes>  (1) 
This compound has an imine and may undergo hydrolysis.

>  <s_epik_cmdline>  (1) 
J2VwaWtfcHl0aG9uJywgJy1waHQnLCAnMS4wJywgJy1waCcsICc3LjQnLCAnLXRuJywgJzgnLCAnLW1hJywgJzUwMCcsICctaW1hZScsICc8aW5maWxlLm1hZT4nLCAnLW9tYWUnLCAnPG91dGZpbGUubWFlPic=

>  <s_epik_input>  (1) 
W0NIM11bQ0BASF0xTj1bQ0hdW0NAQEhdKFtDSDNdKVtDQEhdMVtDQEhdMltDSDJdTjJbQ0gyXVtDSDJdW0NIMl1PYyhbY0hdYzNGKVtjSF1bY0hdYzNG

>  <s_glide_docking_method>  (1) 
confgen

>  <s_i_glide_gridfile>  (1) 
gpcr_drd2_6luq_protein_autoprepared_prepared

>  <s_lp_Force_Field>  (1) 
S-OPLS

>  <s_lp_Variant>  (1) 
DiffSBDD_83-1

>  <s_m_source_file>  (1) 
generated_generic_title2_ligand_DiffSBDD_2026-06-23_prepared.sdf

>  <GenAI_Model>  (1) 
DiffSBDD

>  <Protein>  (1) 
generic_title2

$$$$
DiffSBDD_94
     RDKit          3D

  0  0  0  0  0  0  0  0  0  0999 V3000
M  V30 BEGIN CTAB
M  V30 COUNTS 66 70 0 0 1
M  V30 BEGIN ATOM
M  V30 1 C 9.110254 4.390302 -13.186997 0
M  V30 2 C 10.287543 5.523892 -8.517394 0
M  V30 3 O 13.775370 9.590276 -4.784977 0
M  V30 4 C 8.849043 4.105126 -11.705721 0
M  V30 5 C 12.465290 9.191513 -5.065805 0 CFG=1
M  V30 6 N 7.793335 4.116837 -17.203675 0
M  V30 7 C 7.861274 4.580978 -18.479805 0
M  V30 8 C 8.686681 5.801804 -13.567809 0 CFG=2
M  V30 9 C 6.506951 5.982741 -16.616889 0
M  V30 10 C 11.913592 8.145349 -4.125691 0 CFG=1
M  V30 11 Cl 11.170139 6.790194 -12.784958 0
M  V30 12 C 11.459116 9.592524 -4.023368 0
M  V30 13 C 5.747207 6.704586 -15.493020 0 CFG=2
M  V30 14 C 8.245050 5.132955 -8.379421 0
M  V30 15 C 9.338193 4.735231 -9.382576 0 CFG=1
M  V30 16 C 9.382131 6.800925 -12.619789 0 CFG=2
M  V30 17 C 10.734172 7.056584 -6.176037 0 CFG=1
M  V30 18 C 4.975723 7.951546 -15.970890 0
M  V30 19 C 7.252300 5.777016 -18.886688 0
M  V30 20 O 9.426355 7.432146 -10.349509 0
M  V30 21 N 7.107993 4.812650 -16.276377 0
M  V30 22 N 9.147552 6.185952 -7.914676 0 CFG=1 CHG=1
M  V30 23 C 11.115606 6.979748 -4.685473 0
M  V30 24 N 9.160076 5.203755 -10.769492 0
M  V30 25 F 12.711748 7.736426 -3.071437 0
M  V30 26 C 9.321354 6.480504 -6.480308 0
M  V30 27 C 6.551516 6.505154 -17.925062 0
M  V30 28 C 12.159871 9.211052 -6.542135 0
M  V30 29 O 10.117498 8.790217 -7.722746 0
M  V30 30 C 9.298666 6.509051 -11.147781 0
M  V30 31 C 6.640969 7.082105 -14.282448 0
M  V30 32 C 10.921861 8.399414 -6.886793 0
M  V30 33 N 7.206136 5.908096 -13.573881 0 CHG=1
M  V30 34 H 8.614899 3.646747 -13.813270 0
M  V30 35 H 10.175277 4.286050 -13.372207 0
M  V30 36 H 10.981446 6.200808 -9.006824 0
M  V30 37 H 10.827272 4.862651 -7.843304 0
M  V30 38 H 13.965539 10.406663 -5.222742 0
M  V30 39 H 9.381943 3.191565 -11.432460 0
M  V30 40 H 7.788663 3.881088 -11.578058 0
M  V30 41 H 8.415187 3.978899 -19.184176 0
M  V30 42 H 9.011440 5.988658 -14.591075 0
M  V30 43 H 11.779401 10.109543 -3.123142 0
M  V30 44 H 10.530340 9.948743 -4.446459 0
M  V30 45 H 4.997178 5.993446 -15.142380 0
M  V30 46 H 8.030193 4.366581 -7.636200 0
M  V30 47 H 7.342987 5.537830 -8.833897 0
M  V30 48 H 9.775285 3.734224 -9.326281 0
M  V30 49 H 9.043478 7.824146 -12.785794 0
M  V30 50 H 11.495532 6.433162 -6.637233 0
M  V30 51 H 4.253234 7.704579 -16.750503 0
M  V30 52 H 4.416380 8.406577 -15.156811 0
M  V30 53 H 5.646310 8.719177 -16.357579 0
M  V30 54 H 7.323533 6.121948 -19.908656 0
M  V30 55 H 10.239939 6.790248 -4.080408 0
M  V30 56 H 11.724973 6.082871 -4.553623 0
M  V30 57 H 9.154409 5.590332 -5.908918 0
M  V30 58 H 8.545647 7.184486 -6.188046 0
M  V30 59 H 6.063007 7.431234 -18.183066 0
M  V30 60 H 12.006529 10.242368 -6.852773 0
M  V30 61 H 13.004581 8.812382 -7.104404 0
M  V30 62 H 6.027315 7.590435 -13.539913 0
M  V30 63 H 7.416855 7.784583 -14.588182 0
M  V30 64 H 6.867324 5.091960 -14.067261 0
M  V30 65 H 6.852391 5.876820 -12.628048 0
M  V30 66 H 8.945155 7.035540 -8.438646 0
M  V30 END ATOM
M  V30 BEGIN BOND
M  V30 1 1 4 1
M  V30 2 1 5 3 CFG=3
M  V30 3 1 7 6
M  V30 4 1 8 1
M  V30 5 1 10 5
M  V30 6 1 12 5
M  V30 7 1 12 10
M  V30 8 1 13 9
M  V30 9 1 15 2
M  V30 10 1 15 14
M  V30 11 1 16 8
M  V30 12 1 16 11
M  V30 13 1 18 13
M  V30 14 2 19 7
M  V30 15 2 21 6
M  V30 16 1 21 9
M  V30 17 1 22 2
M  V30 18 1 22 14
M  V30 19 1 23 10
M  V30 20 1 23 17
M  V30 21 1 24 4
M  V30 22 1 24 15
M  V30 23 1 10 25 CFG=1
M  V30 24 1 26 17
M  V30 25 1 26 22
M  V30 26 2 27 9
M  V30 27 1 27 19
M  V30 28 1 28 5
M  V30 29 1 30 16
M  V30 30 2 30 20
M  V30 31 1 30 24
M  V30 32 1 31 13
M  V30 33 1 32 17
M  V30 34 1 32 28
M  V30 35 2 32 29
M  V30 36 1 33 8
M  V30 37 1 33 31
M  V30 38 1 34 1
M  V30 39 1 35 1
M  V30 40 1 36 2
M  V30 41 1 37 2
M  V30 42 1 38 3
M  V30 43 1 39 4
M  V30 44 1 40 4
M  V30 45 1 41 7
M  V30 46 1 8 42 CFG=3
M  V30 47 1 43 12
M  V30 48 1 44 12
M  V30 49 1 13 45 CFG=1
M  V30 50 1 46 14
M  V30 51 1 47 14
M  V30 52 1 15 48 CFG=3
M  V30 53 1 16 49 CFG=1
M  V30 54 1 17 50 CFG=3
M  V30 55 1 51 18
M  V30 56 1 52 18
M  V30 57 1 53 18
M  V30 58 1 54 19
M  V30 59 1 55 23
M  V30 60 1 56 23
M  V30 61 1 57 26
M  V30 62 1 58 26
M  V30 63 1 59 27
M  V30 64 1 60 28
M  V30 65 1 61 28
M  V30 66 1 62 31
M  V30 67 1 63 31
M  V30 68 1 64 33
M  V30 69 1 65 33
M  V30 70 1 22 66 CFG=3
M  V30 END BOND
M  V30 END CTAB
M  END
>  <i_epik_Tot_Q>  (1) 
2

>  <i_epik_Tot_abs_Q>  (1) 
2

>  <i_i_glide_confnum>  (1) 
138

>  <i_i_glide_lignum>  (1) 
178

>  <i_i_glide_posenum>  (1) 
254

>  <i_i_glide_rotatable_bonds>  (1) 
8

>  <i_lp_mmshare_version>  (1) 
72125

>  <i_m_source_file_index>  (1) 
95

>  <i_f3d_flags>  (1) 
0

>  <num_sample>  (1) 
100

>  <b_lp_Chiralities_Consistent>  (1) 
1

>  <r_epik_Charging_Adjusted_Penalty>  (1) 
0.95188217531897845

>  <r_epik_Ionization_Penalty>  (1) 
0.49022780398244736

>  <r_epik_Ionization_Penalty_Charging>  (1) 
0.49020808109847258

>  <r_epik_Ionization_Penalty_Neutral>  (1) 
1.9722883974789891e-05

>  <r_epik_State_Penalty>  (1) 
0.46167409422050587

>  <r_glide_ring_energy>  (1) 
1.3165782718525243

>  <r_i_docking_score>  (1) 
-6.0636139790188066

>  <r_i_glide_ecoul>  (1) 
-4.753389107658454

>  <r_i_glide_eff_state_penalty>  (1) 
0.46167409422050587

>  <r_i_glide_einternal>  (1) 
6.8150965188067545

>  <r_i_glide_emodel>  (1) 
-37.279278299018635

>  <r_i_glide_emodel_strain>  (1) 
6.109005040701561

>  <r_i_glide_energy>  (1) 
-32.174679897983431

>  <r_i_glide_erotb>  (1) 
0.52401424714319955

>  <r_i_glide_esite>  (1) 
-0.14323637965613764

>  <r_i_glide_evdw>  (1) 
-27.421290790324978

>  <r_i_glide_gscore>  (1) 
-6.5252880732393121

>  <r_i_glide_gscore_strain>  (1) 
0.52725126017539026

>  <r_i_glide_hbond>  (1) 
-0.1325539381753256

>  <r_i_glide_ligand_efficiency>  (1) 
-0.18374587815208504

>  <r_i_glide_ligand_efficiency_ln>  (1) 
-1.3485163532208617

>  <r_i_glide_ligand_efficiency_sa>  (1) 
-0.58937121216804289

>  <r_i_glide_lipo>  (1) 
-3.3491706541741801

>  <r_i_glide_metal>  (1) 
-0

>  <r_i_glide_rewards>  (1) 
-1.867519702887241

>  <r_lp_Energy>  (1) 
61.542628999999998

>  <r_lp_tautomer_probability>  (1) 
0.99999998000000001

>  <s_epik_cmdline>  (1) 
J2VwaWtfcHl0aG9uJywgJy1waHQnLCAnMS4wJywgJy1waCcsICc3LjQnLCAnLXRuJywgJzgnLCAnLW1hJywgJzUwMCcsICctaW1hZScsICc8aW5maWxlLm1hZT4nLCAnLW9tYWUnLCAnPG91dGZpbGUubWFlPic=

>  <s_epik_input>  (1) 
W2NIXTFbY0hdW2NIXW5uYzFbQ0BIXShbQ0gzXSlbQ0gyXVtOSF1bQ0BASF0yW0NIMl1bQ0gyXU4oQyg9TylbQ0BIXTJDbClbQ0hdM1tDSDJdTihbQ0gyXTMpW0NIMl1bQ0BASF0oQyg9TylbQ0gyXTQpW0NIMl1bQ0BdKEYpKFtDSDJdNSlbQ0BAXTQ1W09IXQ==

>  <s_glide_docking_method>  (1) 
confgen

>  <s_i_glide_gridfile>  (1) 
gpcr_drd2_6luq_protein_autoprepared_prepared

>  <s_lp_Force_Field>  (1) 
S-OPLS

>  <s_lp_Variant>  (1) 
DiffSBDD_94-1

>  <s_m_source_file>  (1) 
generated_generic_title2_ligand_DiffSBDD_2026-06-23_prepared.sdf

>  <GenAI_Model>  (1) 
DiffSBDD

>  <Protein>  (1) 
generic_title2

$$$$
DiffSBDD_52
     RDKit          3D

  0  0  0  0  0  0  0  0  0  0999 V3000
M  V30 BEGIN CTAB
M  V30 COUNTS 50 53 0 0 1
M  V30 BEGIN ATOM
M  V30 1 C 11.845929 9.290143 -3.963414 0
M  V30 2 F 12.682993 8.594452 -1.764202 0
M  V30 3 C 8.565861 6.147360 -12.118043 0 CFG=1
M  V30 4 C 6.773169 4.110721 -11.506395 0
M  V30 5 C 7.326303 4.877240 -10.309924 0 CFG=2
M  V30 6 C 11.987498 6.910581 -3.171487 0
M  V30 7 C 10.842714 7.289449 -7.966635 0
M  V30 8 C 7.309209 3.060104 -13.774948 0
M  V30 9 C 12.176357 8.216826 -2.948788 0
M  V30 10 N 8.174491 5.990224 -10.692366 0 CFG=1 CHG=1
M  V30 11 C 10.987123 7.370757 -5.524521 0 CFG=2
M  V30 12 O 9.695664 6.809235 -12.057859 0 CHG=-1
M  V30 13 C 7.354762 4.207710 -14.776010 0
M  V30 14 O 11.360162 6.750524 -6.758346 0
M  V30 15 C 11.626404 8.775426 -5.399648 0
M  V30 16 C 7.874744 3.650993 -12.476690 0 CFG=1
M  V30 17 C 8.634838 4.959531 -14.413784 0
M  V30 18 C 9.374578 6.910585 -8.171413 0
M  V30 19 C 11.424805 6.345378 -4.457898 0
M  V30 20 C 8.784213 4.961085 -9.854723 0 CFG=1
M  V30 21 C 9.104406 5.402832 -8.421650 0
M  V30 22 C 8.811682 4.811544 -12.888137 0 CFG=1
M  V30 23 H 10.973739 9.837573 -3.610134 0
M  V30 24 H 12.677171 9.990211 -3.967085 0
M  V30 25 H 7.677029 6.596832 -12.564189 0
M  V30 26 H 6.175170 3.268227 -11.152671 0
M  V30 27 H 6.066273 4.758709 -12.027777 0
M  V30 28 H 6.582680 5.228158 -9.595928 0
M  V30 29 H 12.244908 6.195824 -2.402959 0
M  V30 30 H 10.969160 8.371282 -7.996144 0
M  V30 31 H 11.426874 6.891461 -8.796480 0
M  V30 32 H 7.959637 2.256736 -14.122811 0
M  V30 33 H 6.308358 2.641518 -13.658873 0
M  V30 34 H 9.906145 7.478175 -5.447426 0
M  V30 35 H 7.348997 3.864929 -15.811053 0
M  V30 36 H 6.489863 4.856965 -14.632223 0
M  V30 37 H 11.016395 9.498760 -5.941644 0
M  V30 38 H 12.574819 8.793094 -5.921503 0
M  V30 39 H 8.475681 2.885235 -11.984877 0
M  V30 40 H 9.483824 4.503969 -14.923759 0
M  V30 41 H 8.588240 5.996204 -14.739141 0
M  V30 42 H 8.796078 7.215273 -7.300091 0
M  V30 43 H 8.975427 7.536327 -8.964540 0
M  V30 44 H 12.174558 5.674318 -4.871963 0
M  V30 45 H 10.575989 5.712428 -4.208022 0
M  V30 46 H 9.569432 4.430430 -10.387740 0
M  V30 47 H 9.935011 4.802087 -8.051881 0
M  V30 48 H 8.251670 5.113827 -7.805945 0
M  V30 49 H 9.835045 4.477614 -12.705377 0
M  V30 50 H 7.877723 6.843022 -10.207164 0
M  V30 END ATOM
M  V30 BEGIN BOND
M  V30 1 1 5 4
M  V30 2 1 9 1
M  V30 3 1 9 2
M  V30 4 2 9 6
M  V30 5 1 10 3
M  V30 6 1 10 5
M  V30 7 1 12 3
M  V30 8 1 13 8
M  V30 9 1 14 7
M  V30 10 1 14 11
M  V30 11 1 15 1
M  V30 12 1 15 11
M  V30 13 1 16 4
M  V30 14 1 16 8
M  V30 15 1 17 13
M  V30 16 1 18 7
M  V30 17 1 19 6
M  V30 18 1 19 11
M  V30 19 1 20 5
M  V30 20 1 20 10
M  V30 21 1 21 18
M  V30 22 1 21 20
M  V30 23 1 22 3
M  V30 24 1 22 16
M  V30 25 1 22 17
M  V30 26 1 23 1
M  V30 27 1 24 1
M  V30 28 1 3 25 CFG=3
M  V30 29 1 26 4
M  V30 30 1 27 4
M  V30 31 1 5 28 CFG=1
M  V30 32 1 29 6
M  V30 33 1 30 7
M  V30 34 1 31 7
M  V30 35 1 32 8
M  V30 36 1 33 8
M  V30 37 1 11 34 CFG=3
M  V30 38 1 35 13
M  V30 39 1 36 13
M  V30 40 1 37 15
M  V30 41 1 38 15
M  V30 42 1 16 39 CFG=1
M  V30 43 1 40 17
M  V30 44 1 41 17
M  V30 45 1 42 18
M  V30 46 1 43 18
M  V30 47 1 44 19
M  V30 48 1 45 19
M  V30 49 1 20 46 CFG=3
M  V30 50 1 47 21
M  V30 51 1 48 21
M  V30 52 1 22 49 CFG=3
M  V30 53 1 10 50 CFG=1
M  V30 END BOND
M  V30 END CTAB
M  END
>  <i_epik_Tot_Q>  (1) 
0

>  <i_epik_Tot_abs_Q>  (1) 
2

>  <i_i_glide_confnum>  (1) 
28

>  <i_i_glide_lignum>  (1) 
82

>  <i_i_glide_posenum>  (1) 
300

>  <i_i_glide_rotatable_bonds>  (1) 
5

>  <i_lp_mmshare_version>  (1) 
72125

>  <i_m_source_file_index>  (1) 
53

>  <i_f3d_flags>  (1) 
0

>  <num_sample>  (1) 
100

>  <b_lp_Chiralities_Consistent>  (1) 
1

>  <r_epik_Charging_Adjusted_Penalty>  (1) 
0.66076975529779935

>  <r_epik_Ionization_Penalty>  (1) 
0.32551799850713803

>  <r_epik_Ionization_Penalty_Charging>  (1) 
0.32551799850601437

>  <r_epik_Ionization_Penalty_Neutral>  (1) 
1.1236391675704673e-12

>  <r_epik_State_Penalty>  (1) 
0.33525175679178498

>  <r_glide_ring_energy>  (1) 
0

>  <r_i_docking_score>  (1) 
-6.0613302837636462

>  <r_i_glide_ecoul>  (1) 
-5.9783231145393891

>  <r_i_glide_eff_state_penalty>  (1) 
0.33525175679178498

>  <r_i_glide_einternal>  (1) 
7.0165845663138278

>  <r_i_glide_emodel>  (1) 
-40.675835615895323

>  <r_i_glide_emodel_strain>  (1) 
5.8821743731148146

>  <r_i_glide_energy>  (1) 
-35.281880122181107

>  <r_i_glide_erotb>  (1) 
0.58016400484968

>  <r_i_glide_esite>  (1) 
-0.11705869012778194

>  <r_i_glide_evdw>  (1) 
-29.303557007641722

>  <r_i_glide_gscore>  (1) 
-6.3965820405554314

>  <r_i_glide_gscore_strain>  (1) 
0.47054359327870365

>  <r_i_glide_hbond>  (1) 
-0.20000000000000001

>  <r_i_glide_ligand_efficiency>  (1) 
-0.27551501289834757

>  <r_i_glide_ligand_efficiency_ln>  (1) 
-1.4816102137458709

>  <r_i_glide_ligand_efficiency_sa>  (1) 
-0.77200390232719618

>  <r_i_glide_lipo>  (1) 
-2.4544724636879169

>  <r_i_glide_metal>  (1) 
-0

>  <r_i_glide_rewards>  (1) 
-2.3138321673051214

>  <r_lp_Energy>  (1) 
29.210184999999999

>  <s_epik_Chemistry_Notes>  (1) 
This compound contains an acetal/aminal-like group ( X-CH(R)-Y where X, Y are N, S, or O) that may be acid/base labile, releasing an aldehyde.

>  <s_epik_cmdline>  (1) 
J2VwaWtfcHl0aG9uJywgJy1waHQnLCAnMS4wJywgJy1waCcsICc3LjQnLCAnLXRuJywgJzgnLCAnLW1hJywgJzUwMCcsICctaW1hZScsICc8aW5maWxlLm1hZT4nLCAnLW9tYWUnLCAnPG91dGZpbGUubWFlPic=

>  <s_epik_input>  (1) 
RkMxPVtDSF1bQ0gyXVtDQEBIXShbQ0gyXVtDSDJdMSlPW0NIMl1bQ0gyXVtDSDJdW0NAQEhdMk4oW0NASF0yMylbQ0BASF0oW09IXSlbQ0BIXTRbQ0BASF0oW0NIMl0zKVtDSDJdW0NIMl1bQ0gyXTQ=

>  <s_glide_docking_method>  (1) 
confgen

>  <s_i_glide_gridfile>  (1) 
gpcr_drd2_6luq_protein_autoprepared_prepared

>  <s_lp_Force_Field>  (1) 
S-OPLS

>  <s_lp_Variant>  (1) 
DiffSBDD_52-1

>  <s_m_source_file>  (1) 
generated_generic_title2_ligand_DiffSBDD_2026-06-23_prepared.sdf

>  <GenAI_Model>  (1) 
DiffSBDD

>  <Protein>  (1) 
generic_title2

$$$$
DiffSBDD_72
     RDKit          3D

  0  0  0  0  0  0  0  0  0  0999 V3000
M  V30 BEGIN CTAB
M  V30 COUNTS 47 49 0 0 1
M  V30 BEGIN ATOM
M  V30 1 C 12.198748 8.201259 -3.083184 0
M  V30 2 C 12.165424 8.507937 -7.565882 0
M  V30 3 C 9.604721 8.355534 -6.989229 0
M  V30 4 C 11.375409 8.125480 -5.216919 0
M  V30 5 C 12.798860 8.790228 -1.864508 0
M  V30 6 C 11.223840 6.803191 -4.851491 0
M  V30 7 C 5.792620 5.277099 -12.029756 0
M  V30 8 C 6.672095 4.080919 -11.694537 0
M  V30 9 C 11.028178 8.755185 -6.541610 0 CFG=1
M  V30 10 N 11.933085 8.897282 -4.187698 0
M  V30 11 C 9.100632 6.635874 -11.717924 0
M  V30 12 C 9.685336 7.480682 -9.396555 0 CFG=2
M  V30 13 C 9.509537 7.128089 -7.905158 0
M  V30 14 C 7.966809 5.933318 -12.489626 0 CFG=1
M  V30 15 C 7.946708 4.397143 -12.453956 0
M  V30 16 S 11.775411 6.520466 -3.220019 0
M  V30 17 O 6.697936 6.369399 -12.008919 0
M  V30 18 O 9.375422 5.146210 -9.867257 0 CHG=-1
M  V30 19 N 8.991286 6.390235 -10.223377 0 CFG=2 CHG=1
M  V30 20 C 11.161363 7.699867 -9.800721 0
M  V30 21 C 11.872517 8.836072 -9.043731 0
M  V30 22 H 13.032326 9.086625 -7.243224 0
M  V30 23 H 12.485860 7.466789 -7.516108 0
M  V30 24 H 8.978319 8.202484 -6.108610 0
M  V30 25 H 9.134430 9.189131 -7.506576 0
M  V30 26 H 13.775400 9.190209 -2.116010 0
M  V30 27 H 12.169549 9.591997 -1.478463 0
M  V30 28 H 12.927395 8.031244 -1.095506 0
M  V30 29 H 10.827378 5.990237 -5.438093 0
M  V30 30 H 4.976181 5.414318 -11.319820 0
M  V30 31 H 5.369925 5.178775 -13.030800 0
M  V30 32 H 6.871093 4.056404 -10.622137 0
M  V30 33 H 6.226603 3.129262 -11.983932 0
M  V30 34 H 10.986726 9.834374 -6.385651 0
M  V30 35 H 9.024384 7.713581 -11.868102 0
M  V30 36 H 10.086569 6.296213 -12.036965 0
M  V30 37 H 9.123057 8.385457 -9.629654 0
M  V30 38 H 8.524006 6.690594 -7.763942 0
M  V30 39 H 10.210215 6.347959 -7.607791 0
M  V30 40 H 8.039237 6.239194 -13.534414 0
M  V30 41 H 7.872620 4.009041 -13.470623 0
M  V30 42 H 8.833553 3.950956 -12.003710 0
M  V30 43 H 11.229545 7.928366 -10.862531 0
M  V30 44 H 11.728703 6.790239 -9.647829 0
M  V30 45 H 11.345761 9.780749 -9.164876 0
M  V30 46 H 12.834764 8.986576 -9.534818 0
M  V30 47 H 7.978779 6.561042 -10.003607 0
M  V30 END ATOM
M  V30 BEGIN BOND
M  V30 1 1 5 1
M  V30 2 2 6 4
M  V30 3 1 8 7
M  V30 4 1 9 2
M  V30 5 1 9 3
M  V30 6 1 9 4
M  V30 7 2 10 1
M  V30 8 1 10 4
M  V30 9 1 13 3
M  V30 10 1 13 12
M  V30 11 1 14 11
M  V30 12 1 15 8
M  V30 13 1 15 14
M  V30 14 1 16 1
M  V30 15 1 16 6
M  V30 16 1 17 7
M  V30 17 1 17 14
M  V30 18 1 19 11
M  V30 19 1 19 12
M  V30 20 1 19 18
M  V30 21 1 20 12
M  V30 22 1 21 2
M  V30 23 1 21 20
M  V30 24 1 22 2
M  V30 25 1 23 2
M  V30 26 1 24 3
M  V30 27 1 25 3
M  V30 28 1 26 5
M  V30 29 1 27 5
M  V30 30 1 28 5
M  V30 31 1 29 6
M  V30 32 1 30 7
M  V30 33 1 31 7
M  V30 34 1 32 8
M  V30 35 1 33 8
M  V30 36 1 9 34 CFG=1
M  V30 37 1 35 11
M  V30 38 1 36 11
M  V30 39 1 12 37 CFG=1
M  V30 40 1 38 13
M  V30 41 1 39 13
M  V30 42 1 14 40 CFG=3
M  V30 43 1 41 15
M  V30 44 1 42 15
M  V30 45 1 43 20
M  V30 46 1 44 20
M  V30 47 1 45 21
M  V30 48 1 46 21
M  V30 49 1 19 47 CFG=1
M  V30 END BOND
M  V30 END CTAB
M  END
>  <i_epik_Tot_Q>  (1) 
0

>  <i_epik_Tot_abs_Q>  (1) 
2

>  <i_i_glide_confnum>  (1) 
183

>  <i_i_glide_lignum>  (1) 
119

>  <i_i_glide_posenum>  (1) 
53

>  <i_i_glide_rotatable_bonds>  (1) 
4

>  <i_lp_mmshare_version>  (1) 
72125

>  <i_m_source_file_index>  (1) 
73

>  <i_f3d_flags>  (1) 
0

>  <num_sample>  (1) 
100

>  <b_lp_Chiralities_Consistent>  (1) 
1

>  <r_epik_Charging_Adjusted_Penalty>  (1) 
0.52782075658533367

>  <r_epik_Ionization_Penalty>  (1) 
0.0061787587503483845

>  <r_epik_Ionization_Penalty_Charging>  (1) 
0.0058496280333447418

>  <r_epik_Ionization_Penalty_Neutral>  (1) 
0.00032913071700364294

>  <r_epik_State_Penalty>  (1) 
0.52197112855198891

>  <r_glide_ring_energy>  (1) 
0.39787127286497581

>  <r_i_docking_score>  (1) 
-6.0611557141681951

>  <r_i_glide_ecoul>  (1) 
-3.3156462677915099

>  <r_i_glide_eff_state_penalty>  (1) 
0.52197112855198891

>  <r_i_glide_einternal>  (1) 
10.858921242082058

>  <r_i_glide_emodel>  (1) 
-46.356568029916914

>  <r_i_glide_emodel_strain>  (1) 
0

>  <r_i_glide_energy>  (1) 
-37.546056940851436

>  <r_i_glide_erotb>  (1) 
0.76903323708162985

>  <r_i_glide_esite>  (1) 
-0.10000000000000001

>  <r_i_glide_evdw>  (1) 
-34.230410673059929

>  <r_i_glide_gscore>  (1) 
-6.5831268427201843

>  <r_i_glide_gscore_strain>  (1) 
0

>  <r_i_glide_hbond>  (1) 
-0.12840275536692944

>  <r_i_glide_ligand_efficiency>  (1) 
-0.28862646257943786

>  <r_i_glide_ligand_efficiency_ln>  (1) 
-1.4986085026097404

>  <r_i_glide_ligand_efficiency_sa>  (1) 
-0.79629852555377201

>  <r_i_glide_lipo>  (1) 
-2.7225840778858883

>  <r_i_glide_metal>  (1) 
-0

>  <r_i_glide_rewards>  (1) 
-2.192305772727273

>  <r_lp_Energy>  (1) 
13.512606

>  <s_epik_cmdline>  (1) 
J2VwaWtfcHl0aG9uJywgJy1waHQnLCAnMS4wJywgJy1waCcsICc3LjQnLCAnLXRuJywgJzgnLCAnLW1hJywgJzUwMCcsICctaW1hZScsICc8aW5maWxlLm1hZT4nLCAnLW9tYWUnLCAnPG91dGZpbGUubWFlPic=

>  <s_epik_input>  (1) 
W0NIM11jMW5jKFtjSF1zMSlbQ0BIXTJbQ0gyXVtDSDJdW0NIMl1bQ0BIXShbQ0gyXVtDSDJdMilOKFtPSF0pW0NIMl1bQ0BIXTNbQ0gyXVtDSDJdW0NIMl1PMw==

>  <s_glide_docking_method>  (1) 
confgen

>  <s_i_glide_gridfile>  (1) 
gpcr_drd2_6luq_protein_autoprepared_prepared

>  <s_lp_Force_Field>  (1) 
S-OPLS

>  <s_lp_Variant>  (1) 
DiffSBDD_72-3

>  <s_m_source_file>  (1) 
generated_generic_title2_ligand_DiffSBDD_2026-06-23_prepared.sdf

>  <GenAI_Model>  (1) 
DiffSBDD

>  <Protein>  (1) 
generic_title2

$$$$
DiffSBDD_52
     RDKit          3D

  0  0  0  0  0  0  0  0  0  0999 V3000
M  V30 BEGIN CTAB
M  V30 COUNTS 51 54 0 0 1
M  V30 BEGIN ATOM
M  V30 1 C 12.253968 9.474619 -3.768967 0
M  V30 2 F 12.701533 7.923147 -1.920463 0
M  V30 3 C 7.809621 7.063167 -12.135733 0 CFG=1
M  V30 4 C 9.471728 5.066858 -13.483206 0
M  V30 5 C 9.470577 5.433860 -12.015901 0 CFG=2
M  V30 6 C 11.775410 7.003838 -3.823101 0
M  V30 7 C 9.729758 8.310234 -7.735413 0
M  V30 8 C 7.015781 4.309526 -13.962301 0
M  V30 9 C 12.235169 8.083244 -3.167780 0
M  V30 10 N 9.260364 6.883423 -12.127605 0 CFG=2 CHG=1
M  V30 11 C 11.058186 8.488457 -5.776067 0 CFG=2
M  V30 12 O 7.721513 8.449647 -11.984942 0
M  V30 13 C 5.723137 5.052144 -14.298425 0
M  V30 14 O 11.034415 8.461502 -7.192374 0
M  V30 15 C 12.158992 9.454251 -5.304667 0
M  V30 16 C 8.079832 5.395117 -14.113077 0 CFG=1
M  V30 17 C 5.866102 6.429581 -13.661408 0
M  V30 18 C 9.858453 8.145705 -9.252702 0
M  V30 19 C 11.220084 7.048055 -5.235574 0
M  V30 20 C 10.175399 6.438827 -11.122389 0 CFG=1
M  V30 21 C 9.757231 6.674638 -9.682375 0
M  V30 22 C 7.376329 6.682356 -13.570266 0 CFG=1
M  V30 23 H 11.407660 10.020167 -3.350280 0
M  V30 24 H 13.160425 9.990227 -3.454300 0
M  V30 25 H 7.278877 6.530033 -11.344140 0
M  V30 26 H 9.683498 4.002396 -13.576303 0
M  V30 27 H 10.276549 5.590153 -14.002932 0
M  V30 28 H 8.712328 4.880761 -11.461306 0
M  V30 29 H 11.790841 6.037508 -3.339481 0
M  V30 30 H 9.130086 9.190341 -7.507038 0
M  V30 31 H 9.207133 7.458375 -7.295467 0
M  V30 32 H 6.977663 3.940079 -12.935966 0
M  V30 33 H 7.188208 3.455374 -14.618740 0
M  V30 34 H 10.129540 8.906335 -5.402182 0
M  V30 35 H 7.375494 8.581883 -11.100212 0
M  V30 36 H 4.837145 4.522944 -13.950898 0
M  V30 37 H 5.644455 5.188451 -15.377312 0
M  V30 38 H 13.121416 9.190335 -5.738422 0
M  V30 39 H 11.945096 10.459972 -5.668975 0
M  V30 40 H 8.231865 5.525047 -15.186592 0
M  V30 41 H 5.398732 6.432043 -12.675803 0
M  V30 42 H 5.374369 7.200232 -14.253636 0
M  V30 43 H 10.795365 8.588556 -9.593582 0
M  V30 44 H 9.067528 8.719759 -9.733500 0
M  V30 45 H 10.255359 6.539535 -5.249473 0
M  V30 46 H 11.877405 6.464634 -5.880080 0
M  V30 47 H 11.167665 6.790237 -11.398499 0
M  V30 48 H 8.746546 6.302742 -9.509244 0
M  V30 49 H 10.409514 6.071196 -9.049595 0
M  V30 50 H 7.642233 7.497233 -14.246306 0
M  V30 51 H 9.719598 7.246921 -12.948473 0
M  V30 END ATOM
M  V30 BEGIN BOND
M  V30 1 1 5 4
M  V30 2 1 9 1
M  V30 3 1 9 2
M  V30 4 2 9 6
M  V30 5 1 10 3
M  V30 6 1 10 5
M  V30 7 1 12 3
M  V30 8 1 13 8
M  V30 9 1 14 7
M  V30 10 1 14 11
M  V30 11 1 15 1
M  V30 12 1 15 11
M  V30 13 1 16 4
M  V30 14 1 16 8
M  V30 15 1 17 13
M  V30 16 1 18 7
M  V30 17 1 19 6
M  V30 18 1 19 11
M  V30 19 1 20 5
M  V30 20 1 20 10
M  V30 21 1 21 18
M  V30 22 1 21 20
M  V30 23 1 22 3
M  V30 24 1 22 16
M  V30 25 1 22 17
M  V30 26 1 23 1
M  V30 27 1 24 1
M  V30 28 1 3 25 CFG=1
M  V30 29 1 26 4
M  V30 30 1 27 4
M  V30 31 1 5 28 CFG=1
M  V30 32 1 29 6
M  V30 33 1 30 7
M  V30 34 1 31 7
M  V30 35 1 32 8
M  V30 36 1 33 8
M  V30 37 1 11 34 CFG=1
M  V30 38 1 35 12
M  V30 39 1 36 13
M  V30 40 1 37 13
M  V30 41 1 38 15
M  V30 42 1 39 15
M  V30 43 1 16 40 CFG=3
M  V30 44 1 41 17
M  V30 45 1 42 17
M  V30 46 1 43 18
M  V30 47 1 44 18
M  V30 48 1 45 19
M  V30 49 1 46 19
M  V30 50 1 20 47 CFG=3
M  V30 51 1 48 21
M  V30 52 1 49 21
M  V30 53 1 22 50 CFG=3
M  V30 54 1 10 51 CFG=3
M  V30 END BOND
M  V30 END CTAB
M  END
>  <i_epik_Tot_Q>  (1) 
1

>  <i_epik_Tot_abs_Q>  (1) 
1

>  <i_i_glide_confnum>  (1) 
160

>  <i_i_glide_lignum>  (1) 
85

>  <i_i_glide_posenum>  (1) 
133

>  <i_i_glide_rotatable_bonds>  (1) 
6

>  <i_lp_mmshare_version>  (1) 
72125

>  <i_m_source_file_index>  (1) 
53

>  <i_f3d_flags>  (1) 
0

>  <num_sample>  (1) 
100

>  <b_lp_Chiralities_Consistent>  (1) 
1

>  <r_epik_Charging_Adjusted_Penalty>  (1) 
0.54296395038273226

>  <r_epik_Ionization_Penalty>  (1) 
0.53316988730295212

>  <r_epik_Ionization_Penalty_Charging>  (1) 
0.022916544562111445

>  <r_epik_Ionization_Penalty_Neutral>  (1) 
0.51025334274084067

>  <r_epik_State_Penalty>  (1) 
0.52004740582062081

>  <r_glide_ring_energy>  (1) 
0

>  <r_i_docking_score>  (1) 
-6.0536514286148249

>  <r_i_glide_ecoul>  (1) 
-6.8156546815738057

>  <r_i_glide_eff_state_penalty>  (1) 
0.52004740582062081

>  <r_i_glide_einternal>  (1) 
5.9618369554023616

>  <r_i_glide_emodel>  (1) 
-49.882231966078223

>  <r_i_glide_emodel_strain>  (1) 
1.7205599876531892

>  <r_i_glide_energy>  (1) 
-36.372701416547564

>  <r_i_glide_erotb>  (1) 
0.76914675799504084

>  <r_i_glide_esite>  (1) 
-0.090724204358120508

>  <r_i_glide_evdw>  (1) 
-29.55704673497376

>  <r_i_glide_gscore>  (1) 
-6.5736988344354454

>  <r_i_glide_gscore_strain>  (1) 
0

>  <r_i_glide_hbond>  (1) 
-0.16

>  <r_i_glide_ligand_efficiency>  (1) 
-0.27516597402794657

>  <r_i_glide_ligand_efficiency_ln>  (1) 
-1.4797332214544519

>  <r_i_glide_ligand_efficiency_sa>  (1) 
-0.77102588168440511

>  <r_i_glide_lipo>  (1) 
-2.4868883139033211

>  <r_i_glide_metal>  (1) 
-0

>  <r_i_glide_rewards>  (1) 
-2.1050325351842858

>  <r_lp_Energy>  (1) 
32.431187000000001

>  <s_epik_Chemistry_Notes>  (1) 
This compound contains an acetal/aminal-like group ( X-CH(R)-Y where X, Y are N, S, or O) that may be acid/base labile, releasing an aldehyde.

>  <s_epik_cmdline>  (1) 
J2VwaWtfcHl0aG9uJywgJy1waHQnLCAnMS4wJywgJy1waCcsICc3LjQnLCAnLXRuJywgJzgnLCAnLW1hJywgJzUwMCcsICctaW1hZScsICc8aW5maWxlLm1hZT4nLCAnLW9tYWUnLCAnPG91dGZpbGUubWFlPic=

>  <s_epik_input>  (1) 
RkMxPVtDSF1bQ0gyXVtDQEBIXShbQ0gyXVtDSDJdMSlPW0NIMl1bQ0gyXVtDSDJdW0NAQEhdMk4oW0NASF0yMylbQ0BASF0oW09IXSlbQ0BIXTRbQ0BASF0oW0NIMl0zKVtDSDJdW0NIMl1bQ0gyXTQ=

>  <s_glide_docking_method>  (1) 
confgen

>  <s_i_glide_gridfile>  (1) 
gpcr_drd2_6luq_protein_autoprepared_prepared

>  <s_lp_Force_Field>  (1) 
S-OPLS

>  <s_lp_Variant>  (1) 
DiffSBDD_52-4

>  <s_m_source_file>  (1) 
generated_generic_title2_ligand_DiffSBDD_2026-06-23_prepared.sdf

>  <GenAI_Model>  (1) 
DiffSBDD

>  <Protein>  (1) 
generic_title2

$$$$
DiffSBDD_52
     RDKit          3D

  0  0  0  0  0  0  0  0  0  0999 V3000
M  V30 BEGIN CTAB
M  V30 COUNTS 50 53 0 0 1
M  V30 BEGIN ATOM
M  V30 1 C 12.046252 9.404382 -3.618872 0
M  V30 2 F 12.626480 8.061945 -1.646104 0
M  V30 3 C 6.960855 5.467274 -12.063131 0 CFG=1
M  V30 4 C 9.388986 3.989974 -12.991875 0
M  V30 5 C 9.071005 4.587799 -11.676990 0 CFG=2
M  V30 6 C 11.859550 6.897956 -3.483812 0
M  V30 7 C 9.728305 7.270441 -7.411263 0
M  V30 8 C 7.747140 2.040948 -13.351780 0
M  V30 9 C 12.176194 8.070248 -2.910620 0
M  V30 10 N 8.385732 5.835658 -12.032888 0 CFG=2 CHG=1
M  V30 11 C 10.926426 8.118373 -5.533885 0 CFG=2
M  V30 12 O 6.396339 6.532333 -12.571716 0 CHG=-1
M  V30 13 C 6.227307 1.955697 -13.358626 0
M  V30 14 O 10.841244 8.030358 -6.947830 0
M  V30 15 C 11.863804 9.282797 -5.144955 0
M  V30 16 C 8.057640 3.521863 -13.616379 0 CFG=1
M  V30 17 C 5.772036 3.283750 -12.753529 0
M  V30 18 C 9.782958 7.227268 -8.938511 0
M  V30 19 C 11.342859 6.765479 -4.902954 0
M  V30 20 C 9.436402 5.847251 -11.007021 0 CFG=1
M  V30 21 C 9.080354 6.001863 -9.543708 0
M  V30 22 C 6.789623 4.342526 -13.171131 0 CFG=1
M  V30 23 H 11.198114 9.932135 -3.183608 0
M  V30 24 H 12.936376 9.989971 -3.393742 0
M  V30 25 H 6.670637 5.094041 -11.079261 0
M  V30 26 H 9.894082 4.712961 -13.633931 0
M  V30 27 H 10.075328 3.170458 -12.785159 0
M  V30 28 H 8.524081 3.913006 -11.019868 0
M  V30 29 H 11.975081 5.981047 -2.924230 0
M  V30 30 H 9.775927 6.256665 -7.014768 0
M  V30 31 H 8.785982 7.708950 -7.079187 0
M  V30 32 H 8.193683 1.381996 -14.097127 0
M  V30 33 H 8.130969 1.728641 -12.384846 0
M  V30 34 H 9.932857 8.376954 -5.185124 0
M  V30 35 H 5.880198 1.861883 -14.385066 0
M  V30 36 H 5.850367 1.088842 -12.814053 0
M  V30 37 H 11.456918 10.217494 -5.531408 0
M  V30 38 H 12.837888 9.190240 -5.623863 0
M  V30 39 H 8.149314 3.623677 -14.699396 0
M  V30 40 H 4.765232 3.578153 -13.056101 0
M  V30 41 H 5.775540 3.172188 -11.670249 0
M  V30 42 H 9.375647 8.149721 -9.355765 0
M  V30 43 H 10.832873 7.194318 -9.231874 0
M  V30 44 H 12.112008 6.277540 -5.500150 0
M  V30 45 H 10.492475 6.084153 -4.881818 0
M  V30 46 H 10.308508 6.385362 -11.373545 0
M  V30 47 H 9.451018 5.111310 -9.033884 0
M  V30 48 H 8.003406 5.990366 -9.385812 0
M  V30 49 H 6.413014 4.784544 -14.097657 0
M  V30 50 H 8.697279 6.178759 -12.926820 0
M  V30 END ATOM
M  V30 BEGIN BOND
M  V30 1 1 5 4
M  V30 2 1 9 1
M  V30 3 1 9 2
M  V30 4 2 9 6
M  V30 5 1 10 3
M  V30 6 1 10 5
M  V30 7 1 12 3
M  V30 8 1 13 8
M  V30 9 1 14 7
M  V30 10 1 14 11
M  V30 11 1 15 1
M  V30 12 1 15 11
M  V30 13 1 16 4
M  V30 14 1 16 8
M  V30 15 1 17 13
M  V30 16 1 18 7
M  V30 17 1 19 6
M  V30 18 1 19 11
M  V30 19 1 20 5
M  V30 20 1 20 10
M  V30 21 1 21 18
M  V30 22 1 21 20
M  V30 23 1 22 3
M  V30 24 1 22 16
M  V30 25 1 22 17
M  V30 26 1 23 1
M  V30 27 1 24 1
M  V30 28 1 3 25 CFG=1
M  V30 29 1 26 4
M  V30 30 1 27 4
M  V30 31 1 5 28 CFG=1
M  V30 32 1 29 6
M  V30 33 1 30 7
M  V30 34 1 31 7
M  V30 35 1 32 8
M  V30 36 1 33 8
M  V30 37 1 11 34 CFG=1
M  V30 38 1 35 13
M  V30 39 1 36 13
M  V30 40 1 37 15
M  V30 41 1 38 15
M  V30 42 1 16 39 CFG=3
M  V30 43 1 40 17
M  V30 44 1 41 17
M  V30 45 1 42 18
M  V30 46 1 43 18
M  V30 47 1 44 19
M  V30 48 1 45 19
M  V30 49 1 20 46 CFG=3
M  V30 50 1 47 21
M  V30 51 1 48 21
M  V30 52 1 22 49 CFG=3
M  V30 53 1 10 50 CFG=3
M  V30 END BOND
M  V30 END CTAB
M  END
>  <i_epik_Tot_Q>  (1) 
0

>  <i_epik_Tot_abs_Q>  (1) 
2

>  <i_i_glide_confnum>  (1) 
47

>  <i_i_glide_lignum>  (1) 
83

>  <i_i_glide_posenum>  (1) 
105

>  <i_i_glide_rotatable_bonds>  (1) 
5

>  <i_lp_mmshare_version>  (1) 
72125

>  <i_m_source_file_index>  (1) 
53

>  <i_f3d_flags>  (1) 
0

>  <num_sample>  (1) 
100

>  <b_lp_Chiralities_Consistent>  (1) 
1

>  <r_epik_Charging_Adjusted_Penalty>  (1) 
0.66076975529779935

>  <r_epik_Ionization_Penalty>  (1) 
0.32551799850713803

>  <r_epik_Ionization_Penalty_Charging>  (1) 
0.32551799850601437

>  <r_epik_Ionization_Penalty_Neutral>  (1) 
1.1236391675704673e-12

>  <r_epik_State_Penalty>  (1) 
0.33525175679178498

>  <r_glide_ring_energy>  (1) 
0

>  <r_i_docking_score>  (1) 
-6.0518654641774496

>  <r_i_glide_ecoul>  (1) 
-1.4995426761041926

>  <r_i_glide_eff_state_penalty>  (1) 
0.33525175679178498

>  <r_i_glide_einternal>  (1) 
6.6034244163369351

>  <r_i_glide_emodel>  (1) 
-36.28965537317309

>  <r_i_glide_emodel_strain>  (1) 
3.0041205586193769

>  <r_i_glide_energy>  (1) 
-29.785887082502281

>  <r_i_glide_erotb>  (1) 
0.58016400484968

>  <r_i_glide_esite>  (1) 
-0.056452037457082306

>  <r_i_glide_evdw>  (1) 
-28.28634440639809

>  <r_i_glide_gscore>  (1) 
-6.3871172209692348

>  <r_i_glide_gscore_strain>  (1) 
0

>  <r_i_glide_hbond>  (1) 
0

>  <r_i_glide_ligand_efficiency>  (1) 
-0.27508479382624773

>  <r_i_glide_ligand_efficiency_ln>  (1) 
-1.4792966666013216

>  <r_i_glide_ligand_efficiency_sa>  (1) 
-0.77079841156637441

>  <r_i_glide_lipo>  (1) 
-3.0411624368351493

>  <r_i_glide_metal>  (1) 
-0

>  <r_i_glide_rewards>  (1) 
-2.2304181297911487

>  <r_lp_Energy>  (1) 
38.746100999999996

>  <s_epik_Chemistry_Notes>  (1) 
This compound contains an acetal/aminal-like group ( X-CH(R)-Y where X, Y are N, S, or O) that may be acid/base labile, releasing an aldehyde.

>  <s_epik_cmdline>  (1) 
J2VwaWtfcHl0aG9uJywgJy1waHQnLCAnMS4wJywgJy1waCcsICc3LjQnLCAnLXRuJywgJzgnLCAnLW1hJywgJzUwMCcsICctaW1hZScsICc8aW5maWxlLm1hZT4nLCAnLW9tYWUnLCAnPG91dGZpbGUubWFlPic=

>  <s_epik_input>  (1) 
RkMxPVtDSF1bQ0gyXVtDQEBIXShbQ0gyXVtDSDJdMSlPW0NIMl1bQ0gyXVtDSDJdW0NAQEhdMk4oW0NASF0yMylbQ0BASF0oW09IXSlbQ0BIXTRbQ0BASF0oW0NIMl0zKVtDSDJdW0NIMl1bQ0gyXTQ=

>  <s_glide_docking_method>  (1) 
confgen

>  <s_i_glide_gridfile>  (1) 
gpcr_drd2_6luq_protein_autoprepared_prepared

>  <s_lp_Force_Field>  (1) 
S-OPLS

>  <s_lp_Variant>  (1) 
DiffSBDD_52-2

>  <s_m_source_file>  (1) 
generated_generic_title2_ligand_DiffSBDD_2026-06-23_prepared.sdf

>  <GenAI_Model>  (1) 
DiffSBDD

>  <Protein>  (1) 
generic_title2

$$$$
DiffSBDD_72
     RDKit          3D

  0  0  0  0  0  0  0  0  0  0999 V3000
M  V30 BEGIN CTAB
M  V30 COUNTS 47 49 0 0 1
M  V30 BEGIN ATOM
M  V30 1 C 12.199954 8.202082 -2.967583 0
M  V30 2 C 12.125916 8.471634 -7.461414 0
M  V30 3 C 9.572897 8.394767 -6.857044 0
M  V30 4 C 11.375154 8.123292 -5.100620 0
M  V30 5 C 12.803008 8.790433 -1.750113 0
M  V30 6 C 11.232074 6.801203 -4.734741 0
M  V30 7 C 6.838467 4.288842 -13.662993 0
M  V30 8 C 5.758468 4.793944 -12.709420 0
M  V30 9 C 11.015146 8.750572 -6.423077 0 CFG=1
M  V30 10 N 11.932981 8.897970 -4.072862 0
M  V30 11 C 8.986349 6.020852 -11.291532 0
M  V30 12 C 9.596320 7.212665 -9.131685 0 CFG=2
M  V30 13 C 9.393323 7.072903 -7.614653 0
M  V30 14 C 8.001940 4.972547 -11.828977 0 CFG=1
M  V30 15 C 6.531284 5.228232 -11.470259 0
M  V30 16 S 11.775537 6.522321 -3.102197 0
M  V30 17 O 8.000355 4.987926 -13.248868 0
M  V30 18 O 9.380102 4.813837 -9.274606 0 CHG=-1
M  V30 19 N 8.953255 5.990521 -9.781537 0 CFG=2 CHG=1
M  V30 20 C 11.073848 7.374588 -9.525194 0
M  V30 21 C 11.750600 8.630700 -8.944942 0
M  V30 22 H 12.975890 9.114630 -7.229245 0
M  V30 23 H 12.495045 7.454914 -7.327358 0
M  V30 24 H 8.922014 8.390455 -5.984995 0
M  V30 25 H 9.175053 9.190228 -7.485114 0
M  V30 26 H 13.776455 9.190191 -2.008256 0
M  V30 27 H 12.173071 9.589660 -1.357333 0
M  V30 28 H 12.947212 8.030487 -0.984083 0
M  V30 29 H 10.838729 5.989955 -5.316337 0
M  V30 30 H 6.600975 4.483389 -14.709200 0
M  V30 31 H 6.996471 3.216031 -13.539669 0
M  V30 32 H 5.248009 5.653566 -13.145029 0
M  V30 33 H 5.012086 4.028193 -12.496322 0
M  V30 34 H 11.000936 9.832170 -6.279113 0
M  V30 35 H 8.707198 7.027180 -11.605897 0
M  V30 36 H 10.006646 5.805434 -11.607621 0
M  V30 37 H 9.028915 8.064381 -9.508440 0
M  V30 38 H 8.383892 6.711931 -7.427965 0
M  V30 39 H 10.044462 6.292055 -7.231927 0
M  V30 40 H 8.295625 3.972847 -11.504632 0
M  V30 41 H 6.237853 4.671072 -10.579268 0
M  V30 42 H 6.347741 6.285614 -11.272383 0
M  V30 43 H 11.173859 7.416242 -10.608778 0
M  V30 44 H 11.608809 6.493743 -9.185213 0
M  V30 45 H 11.150264 9.523745 -9.118674 0
M  V30 46 H 12.675620 8.789551 -9.500868 0
M  V30 47 H 7.941270 6.142329 -9.560676 0
M  V30 END ATOM
M  V30 BEGIN BOND
M  V30 1 1 5 1
M  V30 2 2 6 4
M  V30 3 1 8 7
M  V30 4 1 9 2
M  V30 5 1 9 3
M  V30 6 1 9 4
M  V30 7 2 10 1
M  V30 8 1 10 4
M  V30 9 1 13 3
M  V30 10 1 13 12
M  V30 11 1 14 11
M  V30 12 1 15 8
M  V30 13 1 15 14
M  V30 14 1 16 1
M  V30 15 1 16 6
M  V30 16 1 17 7
M  V30 17 1 17 14
M  V30 18 1 19 11
M  V30 19 1 19 12
M  V30 20 1 19 18
M  V30 21 1 20 12
M  V30 22 1 21 2
M  V30 23 1 21 20
M  V30 24 1 22 2
M  V30 25 1 23 2
M  V30 26 1 24 3
M  V30 27 1 25 3
M  V30 28 1 26 5
M  V30 29 1 27 5
M  V30 30 1 28 5
M  V30 31 1 29 6
M  V30 32 1 30 7
M  V30 33 1 31 7
M  V30 34 1 32 8
M  V30 35 1 33 8
M  V30 36 1 9 34 CFG=1
M  V30 37 1 35 11
M  V30 38 1 36 11
M  V30 39 1 12 37 CFG=3
M  V30 40 1 38 13
M  V30 41 1 39 13
M  V30 42 1 14 40 CFG=3
M  V30 43 1 41 15
M  V30 44 1 42 15
M  V30 45 1 43 20
M  V30 46 1 44 20
M  V30 47 1 45 21
M  V30 48 1 46 21
M  V30 49 1 19 47 CFG=3
M  V30 END BOND
M  V30 END CTAB
M  END
>  <i_epik_Tot_Q>  (1) 
0

>  <i_epik_Tot_abs_Q>  (1) 
2

>  <i_i_glide_confnum>  (1) 
178

>  <i_i_glide_lignum>  (1) 
119

>  <i_i_glide_posenum>  (1) 
261

>  <i_i_glide_rotatable_bonds>  (1) 
4

>  <i_lp_mmshare_version>  (1) 
72125

>  <i_m_source_file_index>  (1) 
73

>  <i_f3d_flags>  (1) 
0

>  <num_sample>  (1) 
100

>  <b_lp_Chiralities_Consistent>  (1) 
1

>  <r_epik_Charging_Adjusted_Penalty>  (1) 
0.52782075658533367

>  <r_epik_Ionization_Penalty>  (1) 
0.0061787587503483845

>  <r_epik_Ionization_Penalty_Charging>  (1) 
0.0058496280333447418

>  <r_epik_Ionization_Penalty_Neutral>  (1) 
0.00032913071700364294

>  <r_epik_State_Penalty>  (1) 
0.52197112855198891

>  <r_glide_ring_energy>  (1) 
0.39787127286497581

>  <r_i_docking_score>  (1) 
-6.0432677958104524

>  <r_i_glide_ecoul>  (1) 
-3.9388978542537068

>  <r_i_glide_eff_state_penalty>  (1) 
0.52197112855198891

>  <r_i_glide_einternal>  (1) 
2.6795659730715062

>  <r_i_glide_emodel>  (1) 
-49.586126088734886

>  <r_i_glide_emodel_strain>  (1) 
0.0025734297485797697

>  <r_i_glide_energy>  (1) 
-36.727204178384213

>  <r_i_glide_erotb>  (1) 
0.76903323708162985

>  <r_i_glide_esite>  (1) 
-0.089402238535902262

>  <r_i_glide_evdw>  (1) 
-32.788306324130509

>  <r_i_glide_gscore>  (1) 
-6.5652389243624416

>  <r_i_glide_gscore_strain>  (1) 
0

>  <r_i_glide_hbond>  (1) 
-0.095852182640136285

>  <r_i_glide_ligand_efficiency>  (1) 
-0.28777465694335486

>  <r_i_glide_ligand_efficiency_ln>  (1) 
-1.4941857509417309

>  <r_i_glide_ligand_efficiency_sa>  (1) 
-0.79394845839080497

>  <r_i_glide_lipo>  (1) 
-2.7264619731961779

>  <r_i_glide_metal>  (1) 
-0

>  <r_i_glide_rewards>  (1) 
-2.192305772727273

>  <r_lp_Energy>  (1) 
13.512606

>  <s_epik_cmdline>  (1) 
J2VwaWtfcHl0aG9uJywgJy1waHQnLCAnMS4wJywgJy1waCcsICc3LjQnLCAnLXRuJywgJzgnLCAnLW1hJywgJzUwMCcsICctaW1hZScsICc8aW5maWxlLm1hZT4nLCAnLW9tYWUnLCAnPG91dGZpbGUubWFlPic=

>  <s_epik_input>  (1) 
W0NIM11jMW5jKFtjSF1zMSlbQ0BIXTJbQ0gyXVtDSDJdW0NIMl1bQ0BIXShbQ0gyXVtDSDJdMilOKFtPSF0pW0NIMl1bQ0BIXTNbQ0gyXVtDSDJdW0NIMl1PMw==

>  <s_glide_docking_method>  (1) 
confgen

>  <s_i_glide_gridfile>  (1) 
gpcr_drd2_6luq_protein_autoprepared_prepared

>  <s_lp_Force_Field>  (1) 
S-OPLS

>  <s_lp_Variant>  (1) 
DiffSBDD_72-3

>  <s_m_source_file>  (1) 
generated_generic_title2_ligand_DiffSBDD_2026-06-23_prepared.sdf

>  <GenAI_Model>  (1) 
DiffSBDD

>  <Protein>  (1) 
generic_title2

$$$$
DiffSBDD_11
     RDKit          3D

  0  0  0  0  0  0  0  0  0  0999 V3000
M  V30 BEGIN CTAB
M  V30 COUNTS 44 44 0 0 1
M  V30 BEGIN ATOM
M  V30 1 C 7.289911 7.620009 -12.450679 0 CFG=1
M  V30 2 C 12.573465 9.494117 -6.571500 0
M  V30 3 C 8.184200 6.419933 -12.080974 0
M  V30 4 C 11.445033 7.661044 -9.776291 0
M  V30 5 C 12.348490 8.481478 -3.253569 0
M  V30 6 C 11.396663 8.305951 -8.384706 0 CFG=1
M  V30 7 C 10.694488 8.069448 -5.943695 0
M  V30 8 C 10.035539 7.292284 -10.244875 0
M  V30 9 C 10.607743 7.501124 -7.329786 0 CFG=2
M  V30 10 C 5.808619 7.208314 -12.358587 0
M  V30 11 N 7.563231 8.788439 -11.585041 0 CHG=1
M  V30 12 N 11.595454 8.945533 -5.606251 0 CHG=1
M  V30 13 C 11.683985 9.464334 -4.228968 0
M  V30 14 C 11.021076 6.036355 -7.171416 0
M  V30 15 C 12.770886 8.659998 -7.848574 0
M  V30 16 S 9.953750 6.825842 -11.985236 0
M  V30 17 H 7.516455 7.912268 -13.477055 0
M  V30 18 H 12.178856 10.487211 -6.785424 0
M  V30 19 H 13.525743 9.608429 -6.052108 0
M  V30 20 H 7.866172 5.986011 -11.133403 0
M  V30 21 H 8.055603 5.637514 -12.829626 0
M  V30 22 H 11.887161 8.369379 -10.477907 0
M  V30 23 H 12.096081 6.791533 -9.773853 0
M  V30 24 H 12.430012 8.919755 -2.258932 0
M  V30 25 H 13.355751 8.220235 -3.572763 0
M  V30 26 H 11.776993 7.559131 -3.160424 0
M  V30 27 H 10.856176 9.234900 -8.524639 0
M  V30 28 H 10.010386 7.740107 -5.185329 0
M  V30 29 H 9.631528 6.465817 -9.663661 0
M  V30 30 H 9.388336 8.144900 -10.060921 0
M  V30 31 H 5.606729 6.335270 -12.981486 0
M  V30 32 H 5.129631 7.991242 -12.689160 0
M  V30 33 H 5.532314 6.954386 -11.333488 0
M  V30 34 H 7.364609 8.464489 -10.615493 0
M  V30 35 H 6.958357 9.560657 -11.812119 0
M  V30 36 H 12.249713 10.390227 -4.291645 0
M  V30 37 H 10.678882 9.730583 -3.903885 0
M  V30 38 H 10.342782 5.590342 -6.451526 0
M  V30 39 H 12.032981 5.922470 -6.785414 0
M  V30 40 H 10.939545 5.467169 -8.092699 0
M  V30 41 H 13.320861 7.745560 -7.638080 0
M  V30 42 H 13.359720 9.190537 -8.593618 0
M  V30 43 H 8.534087 9.049638 -11.669477 0
M  V30 44 H 9.551391 7.527040 -7.601973 0
M  V30 END ATOM
M  V30 BEGIN BOND
M  V30 1 1 3 1
M  V30 2 1 6 4
M  V30 3 1 8 4
M  V30 4 1 9 6
M  V30 5 1 9 7
M  V30 6 1 10 1
M  V30 7 1 11 1
M  V30 8 1 12 2
M  V30 9 2 12 7
M  V30 10 1 13 5
M  V30 11 1 13 12
M  V30 12 1 14 9
M  V30 13 1 15 2
M  V30 14 1 15 6
M  V30 15 1 16 3
M  V30 16 1 16 8
M  V30 17 1 1 17 CFG=3
M  V30 18 1 18 2
M  V30 19 1 19 2
M  V30 20 1 20 3
M  V30 21 1 21 3
M  V30 22 1 22 4
M  V30 23 1 23 4
M  V30 24 1 24 5
M  V30 25 1 25 5
M  V30 26 1 26 5
M  V30 27 1 6 27 CFG=3
M  V30 28 1 28 7
M  V30 29 1 29 8
M  V30 30 1 30 8
M  V30 31 1 31 10
M  V30 32 1 32 10
M  V30 33 1 33 10
M  V30 34 1 34 11
M  V30 35 1 35 11
M  V30 36 1 36 13
M  V30 37 1 37 13
M  V30 38 1 38 14
M  V30 39 1 39 14
M  V30 40 1 40 14
M  V30 41 1 41 15
M  V30 42 1 42 15
M  V30 43 1 43 11
M  V30 44 1 9 44 CFG=3
M  V30 END BOND
M  V30 END CTAB
M  END
>  <i_epik_Tot_Q>  (1) 
2

>  <i_epik_Tot_abs_Q>  (1) 
2

>  <i_i_glide_confnum>  (1) 
4

>  <i_i_glide_lignum>  (1) 
22

>  <i_i_glide_posenum>  (1) 
347

>  <i_i_glide_rotatable_bonds>  (1) 
6

>  <i_lp_mmshare_version>  (1) 
72125

>  <i_m_source_file_index>  (1) 
12

>  <i_f3d_flags>  (1) 
0

>  <num_sample>  (1) 
100

>  <b_lp_Chiralities_Consistent>  (1) 
1

>  <r_epik_Charging_Adjusted_Penalty>  (1) 
0.13380573077515515

>  <r_epik_Ionization_Penalty>  (1) 
0.13380575400753034

>  <r_epik_Ionization_Penalty_Charging>  (1) 
0.0076430572427279801

>  <r_epik_Ionization_Penalty_Neutral>  (1) 
0.12616269676480235

>  <r_epik_State_Penalty>  (1) 
0.12616267353242716

>  <r_glide_ring_energy>  (1) 
0

>  <r_i_docking_score>  (1) 
-6.0411018103967251

>  <r_i_glide_ecoul>  (1) 
-8.9763015626466487

>  <r_i_glide_eff_state_penalty>  (1) 
0.12616267353242716

>  <r_i_glide_einternal>  (1) 
1.9725217094401837

>  <r_i_glide_emodel>  (1) 
-41.407305716792727

>  <r_i_glide_emodel_strain>  (1) 
0.27469405044054263

>  <r_i_glide_energy>  (1) 
-28.900422419397522

>  <r_i_glide_erotb>  (1) 
1.1639209444696645

>  <r_i_glide_esite>  (1) 
-0.10000000000000001

>  <r_i_glide_evdw>  (1) 
-19.924120856750871

>  <r_i_glide_gscore>  (1) 
-6.1672644839291522

>  <r_i_glide_gscore_strain>  (1) 
0

>  <r_i_glide_hbond>  (1) 
-0.1228053217845026

>  <r_i_glide_ligand_efficiency>  (1) 
-0.37756886314979532

>  <r_i_glide_ligand_efficiency_ln>  (1) 
-1.6013147085935544

>  <r_i_glide_ligand_efficiency_sa>  (1) 
-0.95141391693460764

>  <r_i_glide_lipo>  (1) 
-1.7392666911703145

>  <r_i_glide_metal>  (1) 
-0

>  <r_i_glide_rewards>  (1) 
-3.0264621382094585

>  <r_lp_Energy>  (1) 
22.875516999999999

>  <s_epik_Chemistry_Notes>  (1) 
This compound has an imine and may undergo hydrolysis.

>  <s_epik_cmdline>  (1) 
J2VwaWtfcHl0aG9uJywgJy1waHQnLCAnMS4wJywgJy1waCcsICc3LjQnLCAnLXRuJywgJzgnLCAnLW1hJywgJzUwMCcsICctaW1hZScsICc8aW5maWxlLm1hZT4nLCAnLW9tYWUnLCAnPG91dGZpbGUubWFlPic=

>  <s_epik_input>  (1) 
W0NIM11bQ0BASF0oW05IMl0pW0NIMl1TW0NIMl1bQ0gyXVtDQEhdMUMoW0NIM10pPVtDSF1OKFtDSDJdW0NIMl0xKVtDSDJdW0NIM10=

>  <s_glide_docking_method>  (1) 
confgen

>  <s_i_glide_gridfile>  (1) 
gpcr_drd2_6luq_protein_autoprepared_prepared

>  <s_lp_Force_Field>  (1) 
S-OPLS

>  <s_lp_Variant>  (1) 
DiffSBDD_11-2

>  <s_m_source_file>  (1) 
generated_generic_title2_ligand_DiffSBDD_2026-06-23_prepared.sdf

>  <GenAI_Model>  (1) 
DiffSBDD

>  <Protein>  (1) 
generic_title2

$$$$
DiffSBDD_8
     RDKit          3D

  0  0  0  0  0  0  0  0  0  0999 V3000
M  V30 BEGIN CTAB
M  V30 COUNTS 61 63 0 0 1
M  V30 BEGIN ATOM
M  V30 1 C 9.386934 7.159284 -10.872046 0
M  V30 2 O 11.375370 7.117852 -6.563231 0
M  V30 3 C 7.465538 0.816526 -15.101107 0
M  V30 4 N 9.146038 7.012143 -6.426487 0
M  V30 5 C 6.707318 5.563167 -15.553447 0 CFG=2
M  V30 6 C 7.977505 3.333477 -13.922549 0
M  V30 7 N 11.290001 8.790228 -8.757684 0
M  V30 8 C 5.058995 6.489261 -18.866790 0
M  V30 9 C 7.565038 6.123167 -18.460844 0
M  V30 10 O 6.174561 7.590316 -16.489882 0
M  V30 11 C 7.271415 1.989840 -15.846892 0
M  V30 12 C 4.968264 5.901447 -20.282155 0
M  V30 13 O 7.311758 4.382718 -16.034928 0
M  V30 14 S 9.348463 4.625099 -11.803213 0
M  V30 15 C 5.959019 5.323614 -14.215924 0
M  V30 16 C 8.253647 4.699243 -13.278518 0 CFG=2
M  V30 17 N 8.681061 5.880163 -10.820899 0 CFG=1 CHG=1
M  V30 18 F 7.220213 -0.387905 -15.664315 0
M  V30 19 C 5.059357 8.238017 -15.913399 0
M  V30 20 C 8.967462 5.738288 -9.397742 0
M  V30 21 C 6.938099 5.466463 -13.046759 0
M  V30 22 C 10.007019 6.854319 -9.511787 0 CFG=2
M  V30 23 C 6.128952 5.814273 -17.977598 0 CFG=1
M  V30 24 N 5.880007 6.182409 -16.573694 0
M  V30 25 C 10.270973 7.327851 -7.058736 0
M  V30 26 C 7.915556 0.892531 -13.773046 0
M  V30 27 C 8.175300 2.142658 -13.185001 0
M  V30 28 C 7.516492 3.250983 -15.269283 0
M  V30 29 C 10.131337 7.953954 -8.450683 0 CFG=1
M  V30 30 H 10.108725 7.256863 -11.684554 0
M  V30 31 H 8.696664 8.003826 -10.850562 0
M  V30 32 H 9.185388 6.597103 -5.506464 0
M  V30 33 H 8.247023 7.190232 -6.865972 0
M  V30 34 H 7.545921 6.240484 -15.387966 0
M  V30 35 H 11.367236 9.549375 -8.096591 0
M  V30 36 H 12.144667 8.260612 -8.655675 0
M  V30 37 H 4.080752 6.390212 -18.395255 0
M  V30 38 H 5.248341 7.561505 -18.934154 0
M  V30 39 H 7.730038 5.734376 -19.464880 0
M  V30 40 H 7.758172 7.190230 -18.498604 0
M  V30 41 H 8.330715 5.677971 -17.828131 0
M  V30 42 H 6.925983 1.924769 -16.868299 0
M  V30 43 H 4.175426 6.384793 -20.852180 0
M  V30 44 H 5.893939 6.044328 -20.839161 0
M  V30 45 H 4.749589 4.833826 -20.251396 0
M  V30 46 H 5.165321 6.053748 -14.089936 0
M  V30 47 H 5.446944 4.362370 -14.226767 0
M  V30 48 H 8.858479 5.253658 -13.995928 0
M  V30 49 H 5.214266 9.308078 -15.985030 0
M  V30 50 H 4.124358 7.990803 -16.418870 0
M  V30 51 H 4.975328 8.015602 -14.853148 0
M  V30 52 H 8.098818 5.990224 -8.790698 0
M  V30 53 H 9.381505 4.772410 -9.103768 0
M  V30 54 H 7.142470 6.525649 -12.883614 0
M  V30 55 H 6.434981 5.093716 -12.154104 0
M  V30 56 H 10.975409 6.390231 -9.654338 0
M  V30 57 H 5.972844 4.738824 -18.052194 0
M  V30 58 H 8.066825 -0.009761 -13.203252 0
M  V30 59 H 8.529475 2.183553 -12.169150 0
M  V30 60 H 9.238557 8.581880 -8.465161 0
M  V30 61 H 7.689803 6.041280 -10.943421 0
M  V30 END ATOM
M  V30 BEGIN BOND
M  V30 1 2 11 3
M  V30 2 1 12 8
M  V30 3 1 13 5
M  V30 4 1 15 5
M  V30 5 1 16 6
M  V30 6 1 16 14
M  V30 7 1 17 1
M  V30 8 1 17 14
M  V30 9 1 18 3
M  V30 10 1 19 10
M  V30 11 1 20 17
M  V30 12 1 21 15
M  V30 13 1 21 16
M  V30 14 1 22 1
M  V30 15 1 22 20
M  V30 16 1 23 8
M  V30 17 1 23 9
M  V30 18 1 24 5
M  V30 19 1 24 10
M  V30 20 1 24 23
M  V30 21 2 25 2
M  V30 22 1 25 4
M  V30 23 1 26 3
M  V30 24 1 27 6
M  V30 25 2 27 26
M  V30 26 2 28 6
M  V30 27 1 28 11
M  V30 28 1 28 13
M  V30 29 1 29 7
M  V30 30 1 29 22
M  V30 31 1 29 25
M  V30 32 1 30 1
M  V30 33 1 31 1
M  V30 34 1 32 4
M  V30 35 1 33 4
M  V30 36 1 5 34 CFG=1
M  V30 37 1 35 7
M  V30 38 1 36 7
M  V30 39 1 37 8
M  V30 40 1 38 8
M  V30 41 1 39 9
M  V30 42 1 40 9
M  V30 43 1 41 9
M  V30 44 1 42 11
M  V30 45 1 43 12
M  V30 46 1 44 12
M  V30 47 1 45 12
M  V30 48 1 46 15
M  V30 49 1 47 15
M  V30 50 1 16 48 CFG=3
M  V30 51 1 49 19
M  V30 52 1 50 19
M  V30 53 1 51 19
M  V30 54 1 52 20
M  V30 55 1 53 20
M  V30 56 1 54 21
M  V30 57 1 55 21
M  V30 58 1 22 56 CFG=3
M  V30 59 1 23 57 CFG=1
M  V30 60 1 58 26
M  V30 61 1 59 27
M  V30 62 1 29 60 CFG=1
M  V30 63 1 17 61 CFG=1
M  V30 END BOND
M  V30 END CTAB
M  END
>  <i_epik_Tot_Q>  (1) 
1

>  <i_epik_Tot_abs_Q>  (1) 
1

>  <i_i_glide_confnum>  (1) 
346

>  <i_i_glide_lignum>  (1) 
11

>  <i_i_glide_posenum>  (1) 
66

>  <i_i_glide_rotatable_bonds>  (1) 
8

>  <i_lp_mmshare_version>  (1) 
72125

>  <i_m_source_file_index>  (1) 
9

>  <i_f3d_flags>  (1) 
0

>  <num_sample>  (1) 
100

>  <b_lp_Chiralities_Consistent>  (1) 
1

>  <r_epik_Charging_Adjusted_Penalty>  (1) 
0.26758124344448359

>  <r_epik_Ionization_Penalty>  (1) 
0.27573061112751834

>  <r_epik_Ionization_Penalty_Charging>  (1) 
0.017350130917063531

>  <r_epik_Ionization_Penalty_Neutral>  (1) 
0.25838048021045479

>  <r_epik_State_Penalty>  (1) 
0.25023111252742003

>  <r_glide_ring_energy>  (1) 
1.6748309522073581

>  <r_i_docking_score>  (1) 
-6.0359018526353925

>  <r_i_glide_ecoul>  (1) 
-7.1268810580849564

>  <r_i_glide_eff_state_penalty>  (1) 
0.25023111252742003

>  <r_i_glide_einternal>  (1) 
12.057177427642237

>  <r_i_glide_emodel>  (1) 
-54.083788393648646

>  <r_i_glide_emodel_strain>  (1) 
1.8804825909607672

>  <r_i_glide_energy>  (1) 
-41.717713655859953

>  <r_i_glide_erotb>  (1) 
0.54307168116637361

>  <r_i_glide_esite>  (1) 
-0.16744915784791914

>  <r_i_glide_evdw>  (1) 
-34.590832597774998

>  <r_i_glide_gscore>  (1) 
-6.2861329651628122

>  <r_i_glide_gscore_strain>  (1) 
0

>  <r_i_glide_hbond>  (1) 
-0.14447164599200221

>  <r_i_glide_ligand_efficiency>  (1) 
-0.20813454664259973

>  <r_i_glide_ligand_efficiency_ln>  (1) 
-1.382068466988664

>  <r_i_glide_ligand_efficiency_sa>  (1) 
-0.63945526965655508

>  <r_i_glide_lipo>  (1) 
-2.1151276533492842

>  <r_i_glide_metal>  (1) 
-0

>  <r_i_glide_rewards>  (1) 
-1.6035824005384853

>  <r_lp_Energy>  (1) 
46.913368999999996

>  <r_lp_tautomer_probability>  (1) 
1

>  <s_epik_Chemistry_Notes>  (1) 
This compound contains an acetal/aminal-like group ( X-CH(R)-Y where X, Y are N, S, or O) that may be acid/base labile, releasing an aldehyde. This compound has a N-S or N-O group and may undergo hydrolysis at high or low pH.

>  <s_epik_cmdline>  (1) 
J2VwaWtfcHl0aG9uJywgJy1waHQnLCAnMS4wJywgJy1waCcsICc3LjQnLCAnLXRuJywgJzgnLCAnLW1hJywgJzUwMCcsICctaW1hZScsICc8aW5maWxlLm1hZT4nLCAnLW9tYWUnLCAnPG91dGZpbGUubWFlPic=

>  <s_epik_input>  (1) 
Tz1DKFtOSDJdKVtDQEBIXShbTkgyXSlbQ0hdKFtDSDJdMSlbQ0gyXU4xU1tDQEBIXTJbQ0gyXVtDSDJdW0NASF0oTihPW0NIM10pW0NASF0oW0NIM10pW0NIMl1bQ0gzXSlPYyhjMjMpW2NIXWMoRilbY0hdW2NIXTM=

>  <s_glide_docking_method>  (1) 
confgen

>  <s_i_glide_gridfile>  (1) 
gpcr_drd2_6luq_protein_autoprepared_prepared

>  <s_lp_Force_Field>  (1) 
S-OPLS

>  <s_lp_Variant>  (1) 
DiffSBDD_8-1

>  <s_m_source_file>  (1) 
generated_generic_title2_ligand_DiffSBDD_2026-06-23_prepared.sdf

>  <GenAI_Model>  (1) 
DiffSBDD

>  <Protein>  (1) 
generic_title2

$$$$
DiffSBDD_64
     RDKit          3D

  0  0  0  0  0  0  0  0  0  0999 V3000
M  V30 BEGIN CTAB
M  V30 COUNTS 77 80 0 0 1
M  V30 BEGIN ATOM
M  V30 1 C 5.818537 5.641162 -17.053725 0
M  V30 2 C 10.637022 8.430079 -9.103327 0
M  V30 3 C 4.780501 6.728669 -19.049844 0 CFG=2
M  V30 4 C 6.438124 5.724576 -11.862185 0
M  V30 5 C 10.441986 7.316201 -5.493397 0
M  V30 6 C 5.135409 8.789828 -20.609028 0
M  V30 7 C 6.598257 6.709471 -13.022086 0 CFG=1
M  V30 8 O 12.583123 8.158779 -7.811720 0
M  V30 9 C 6.717343 6.777660 -20.518867 0
M  V30 10 C 3.775230 7.572789 -18.262046 0
M  V30 11 C 7.785136 5.328450 -11.257200 0
M  V30 12 C 11.121327 8.663678 -5.315331 0
M  V30 13 C 10.919089 9.300321 -6.682652 0
M  V30 14 C 8.452836 6.144575 -18.756124 0
M  V30 15 N 6.016463 6.483557 -18.263119 0 CFG=2 CHG=1
M  V30 16 C 5.664986 7.926919 -15.747412 0
M  V30 17 C 11.182060 8.179512 -7.681912 0 CFG=1
M  V30 18 C 5.259858 7.265978 -20.412996 0 CFG=1
M  V30 19 C 7.004677 5.981016 -19.237433 0 CFG=1
M  V30 20 C 7.494838 7.884728 -12.605101 0
M  V30 21 C 8.793321 7.446229 -11.945111 0
M  V30 22 C 10.921668 7.242921 -10.050052 0
M  V30 23 C 9.637412 5.393370 -8.766569 0
M  V30 24 C 9.392728 6.269688 -7.537453 0
M  V30 25 C 10.682089 6.897985 -6.957244 0 CFG=2
M  V30 26 S 7.185000 5.931792 -14.576407 0
M  V30 27 N 8.575596 6.515115 -10.804261 0 CFG=2 CHG=1
M  V30 28 C 9.831475 6.131460 -10.116520 0 CFG=1
M  V30 29 C 5.816968 6.395747 -15.689503 0 CFG=2
M  V30 30 H 6.533579 4.817799 -17.027595 0
M  V30 31 H 4.838020 5.190227 -17.187788 0
M  V30 32 H 9.574030 8.677714 -9.087481 0
M  V30 33 H 11.130310 9.320024 -9.502323 0
M  V30 34 H 4.303271 5.769449 -19.254954 0
M  V30 35 H 5.903168 4.834197 -12.191114 0
M  V30 36 H 5.827618 6.180055 -11.080200 0
M  V30 37 H 10.757732 6.557074 -4.772373 0
M  V30 38 H 9.380468 7.495849 -5.345188 0
M  V30 39 H 5.634230 9.341162 -19.810889 0
M  V30 40 H 5.578292 9.094023 -21.559317 0
M  V30 41 H 4.088757 9.096672 -20.630853 0
M  V30 42 H 5.597123 7.098291 -13.201855 0
M  V30 43 H 12.821357 7.469569 -8.408232 0
M  V30 44 H 7.392556 7.630604 -20.596977 0
M  V30 45 H 6.886276 6.172380 -21.410503 0
M  V30 46 H 2.973011 8.019530 -18.830182 0
M  V30 47 H 3.326164 7.013808 -17.441879 0
M  V30 48 H 4.311643 8.389753 -17.828360 0
M  V30 49 H 8.360052 4.755692 -11.987369 0
M  V30 50 H 7.566116 4.652788 -10.436156 0
M  V30 51 H 12.176982 8.522116 -5.094729 0
M  V30 52 H 10.687262 9.263928 -4.518145 0
M  V30 53 H 11.552321 10.180307 -6.802932 0
M  V30 54 H 9.875736 9.589937 -6.784339 0
M  V30 55 H 9.149806 5.663099 -19.443350 0
M  V30 56 H 8.722920 7.194499 -18.690929 0
M  V30 57 H 8.611714 5.710066 -17.770918 0
M  V30 58 H 4.616865 8.220624 -15.730677 0
M  V30 59 H 6.090443 8.389900 -14.876903 0
M  V30 60 H 6.186830 8.403879 -16.571466 0
M  V30 61 H 4.672225 6.785977 -21.196557 0
M  V30 62 H 6.800190 4.924894 -19.425142 0
M  V30 63 H 7.775251 8.507186 -13.455202 0
M  V30 64 H 6.956135 8.529138 -11.912702 0
M  V30 65 H 9.271342 8.369245 -11.621887 0
M  V30 66 H 9.449098 6.978279 -12.679634 0
M  V30 67 H 11.857855 6.792121 -9.745890 0
M  V30 68 H 11.173932 7.623050 -11.039433 0
M  V30 69 H 10.510302 4.780922 -8.557024 0
M  V30 70 H 8.836073 4.665847 -8.823404 0
M  V30 71 H 8.960228 5.623579 -6.773235 0
M  V30 72 H 8.620758 7.011804 -7.742438 0
M  V30 73 H 11.471996 6.143847 -6.966750 0
M  V30 74 H 10.174745 5.379114 -10.820746 0
M  V30 75 H 4.954985 6.011630 -15.147167 0
M  V30 76 H 7.983580 7.034169 -10.137558 0
M  V30 77 H 6.364584 7.380028 -17.959349 0
M  V30 END ATOM
M  V30 BEGIN BOND
M  V30 1 1 7 4
M  V30 2 1 10 3
M  V30 3 1 11 4
M  V30 4 1 12 5
M  V30 5 1 13 12
M  V30 6 1 15 1
M  V30 7 1 15 3
M  V30 8 1 17 2
M  V30 9 1 17 8 CFG=3
M  V30 10 1 17 13
M  V30 11 1 18 3
M  V30 12 1 18 6
M  V30 13 1 18 9
M  V30 14 1 19 9
M  V30 15 1 19 14
M  V30 16 1 19 15
M  V30 17 1 20 7
M  V30 18 1 21 20
M  V30 19 1 22 2
M  V30 20 1 24 23
M  V30 21 1 25 5
M  V30 22 1 25 17
M  V30 23 1 25 24
M  V30 24 1 26 7
M  V30 25 1 27 11
M  V30 26 1 27 21
M  V30 27 1 28 22
M  V30 28 1 28 23
M  V30 29 1 28 27
M  V30 30 1 29 1
M  V30 31 1 29 16
M  V30 32 1 29 26
M  V30 33 1 30 1
M  V30 34 1 31 1
M  V30 35 1 32 2
M  V30 36 1 33 2
M  V30 37 1 3 34 CFG=3
M  V30 38 1 35 4
M  V30 39 1 36 4
M  V30 40 1 37 5
M  V30 41 1 38 5
M  V30 42 1 39 6
M  V30 43 1 40 6
M  V30 44 1 41 6
M  V30 45 1 7 42 CFG=3
M  V30 46 1 43 8
M  V30 47 1 44 9
M  V30 48 1 45 9
M  V30 49 1 46 10
M  V30 50 1 47 10
M  V30 51 1 48 10
M  V30 52 1 49 11
M  V30 53 1 50 11
M  V30 54 1 51 12
M  V30 55 1 52 12
M  V30 56 1 53 13
M  V30 57 1 54 13
M  V30 58 1 55 14
M  V30 59 1 56 14
M  V30 60 1 57 14
M  V30 61 1 58 16
M  V30 62 1 59 16
M  V30 63 1 60 16
M  V30 64 1 18 61 CFG=3
M  V30 65 1 19 62 CFG=3
M  V30 66 1 63 20
M  V30 67 1 64 20
M  V30 68 1 65 21
M  V30 69 1 66 21
M  V30 70 1 67 22
M  V30 71 1 68 22
M  V30 72 1 69 23
M  V30 73 1 70 23
M  V30 74 1 71 24
M  V30 75 1 72 24
M  V30 76 1 25 73 CFG=1
M  V30 77 1 28 74 CFG=3
M  V30 78 1 29 75 CFG=1
M  V30 79 1 27 76 CFG=1
M  V30 80 1 15 77 CFG=1
M  V30 END BOND
M  V30 END CTAB
M  END
>  <i_epik_Tot_Q>  (1) 
2

>  <i_epik_Tot_abs_Q>  (1) 
2

>  <i_i_glide_confnum>  (1) 
41

>  <i_i_glide_lignum>  (1) 
103

>  <i_i_glide_posenum>  (1) 
393

>  <i_i_glide_rotatable_bonds>  (1) 
6

>  <i_lp_mmshare_version>  (1) 
72125

>  <i_m_source_file_index>  (1) 
65

>  <i_f3d_flags>  (1) 
0

>  <num_sample>  (1) 
100

>  <b_lp_Chiralities_Consistent>  (1) 
1

>  <r_epik_Charging_Adjusted_Penalty>  (1) 
0.010385271147369776

>  <r_epik_Ionization_Penalty>  (1) 
0.010385491156522124

>  <r_epik_Ionization_Penalty_Charging>  (1) 
0.010385271147369776

>  <r_epik_Ionization_Penalty_Neutral>  (1) 
2.2000915234807092e-07

>  <r_epik_State_Penalty>  (1) 
-0

>  <r_glide_ring_energy>  (1) 
0

>  <r_i_docking_score>  (1) 
-6.0305327565250133

>  <r_i_glide_ecoul>  (1) 
-5.9677672938342621

>  <r_i_glide_eff_state_penalty>  (1) 
-0

>  <r_i_glide_einternal>  (1) 
4.3367638222258709

>  <r_i_glide_emodel>  (1) 
-38.486077969211031

>  <r_i_glide_emodel_strain>  (1) 
3.3627173197480289

>  <r_i_glide_energy>  (1) 
-32.306942605047389

>  <r_i_glide_erotb>  (1) 
0.5496323063178965

>  <r_i_glide_esite>  (1) 
-0.10000000000000001

>  <r_i_glide_evdw>  (1) 
-26.339175311213129

>  <r_i_glide_gscore>  (1) 
-6.0305327565250133

>  <r_i_glide_gscore_strain>  (1) 
0

>  <r_i_glide_hbond>  (1) 
-0.19302374474170131

>  <r_i_glide_ligand_efficiency>  (1) 
-0.20794940539741424

>  <r_i_glide_ligand_efficiency_ln>  (1) 
-1.3808390801279173

>  <r_i_glide_ligand_efficiency_sa>  (1) 
-0.63888645709384329

>  <r_i_glide_lipo>  (1) 
-2.6767733717295208

>  <r_i_glide_metal>  (1) 
-0

>  <r_i_glide_rewards>  (1) 
-1.3982440867358914

>  <r_lp_Energy>  (1) 
51.013120000000001

>  <r_lp_tautomer_probability>  (1) 
1

>  <s_epik_cmdline>  (1) 
J2VwaWtfcHl0aG9uJywgJy1waHQnLCAnMS4wJywgJy1waCcsICc3LjQnLCAnLXRuJywgJzgnLCAnLW1hJywgJzUwMCcsICctaW1hZScsICc8aW5maWxlLm1hZT4nLCAnLW9tYWUnLCAnPG91dGZpbGUubWFlPic=

>  <s_epik_input>  (1) 
W0NIM11bQ0BIXTFbQ0gyXVtDQEBIXShbQ0gzXSlOKFtDQEhdMVtDSDNdKVtDSDJdW0NASF0oW0NIM10pU1tDSF0yW0NIMl1bQ0gyXU4oW0NIMl1bQ0gyXTIpW0NAQEhdKFtDSDJdW0NIMl0zKVtDSDJdW0NIMl1bQ0BASF0oW0NAQF0zNFtPSF0pW0NIMl1bQ0gyXVtDSDJdNA==

>  <s_glide_docking_method>  (1) 
confgen

>  <s_i_glide_gridfile>  (1) 
gpcr_drd2_6luq_protein_autoprepared_prepared

>  <s_lp_Force_Field>  (1) 
S-OPLS

>  <s_lp_Variant>  (1) 
DiffSBDD_64-2

>  <s_m_source_file>  (1) 
generated_generic_title2_ligand_DiffSBDD_2026-06-23_prepared.sdf

>  <GenAI_Model>  (1) 
DiffSBDD

>  <Protein>  (1) 
generic_title2

$$$$
DiffSBDD_40
     RDKit          3D

  0  0  0  0  0  0  0  0  0  0999 V3000
M  V30 BEGIN CTAB
M  V30 COUNTS 89 95 0 0 1
M  V30 BEGIN ATOM
M  V30 1 N 7.351090 7.189875 -19.881775 0
M  V30 2 C 7.926608 7.218731 -22.328043 0
M  V30 3 C 7.212453 2.718044 -13.619156 0
M  V30 4 C 10.914751 7.290286 -10.243806 0
M  V30 5 C 7.396247 2.838528 -15.046930 0
M  V30 6 C 8.382797 6.751338 -20.863985 0 CFG=2
M  V30 7 C 7.058009 0.421803 -15.276893 0
M  V30 8 C 8.687140 5.420066 -11.092921 0 CFG=1
M  V30 9 O 7.685303 4.349345 -19.168099 0
M  V30 10 C 7.272601 3.947389 -12.667084 0 CFG=1
M  V30 11 C 7.676550 4.192336 -15.738461 0 CFG=1
M  V30 12 N 7.695691 2.682503 -20.686822 0
M  V30 13 C 9.261620 5.536672 -20.586728 0 CFG=1
M  V30 14 C 6.836484 6.067175 -14.165973 0
M  V30 15 N 8.578662 8.003199 -6.385329 0 CHG=1
M  V30 16 C 6.928158 3.390892 -19.782882 0
M  V30 17 O 9.489563 4.390361 -13.217825 0
M  V30 18 C 6.610023 7.801503 -21.932327 0
M  V30 19 C 9.587168 6.178714 -11.932693 0
M  V30 20 C 9.650139 5.172962 -18.053149 0
M  V30 21 C 5.142146 8.218174 -20.080000 0
M  V30 22 C 6.349057 7.743909 -20.617457 0
M  V30 23 N 8.573522 4.212937 -12.036420 0
M  V30 24 C 10.034918 7.524781 -11.470897 0
M  V30 25 O 5.738699 3.209543 -19.545757 0
M  V30 26 C 6.946637 1.439991 -13.067818 0
M  V30 27 N 9.375257 7.303494 -8.427349 0
M  V30 28 C 9.410779 5.168872 -9.747740 0
M  V30 29 C 7.318537 1.676370 -15.852496 0
M  V30 30 C 6.365900 5.144363 -13.041985 0 CFG=1
M  V30 31 C 6.871396 0.304775 -13.892382 0
M  V30 32 C 5.691193 8.354833 -22.839664 0
M  V30 33 C 9.830077 6.937916 -20.481084 0
M  V30 34 C 4.463586 8.857769 -22.344785 0
M  V30 35 C 9.320104 6.935681 -7.034845 0
M  V30 36 C 4.976068 4.608509 -13.323785 0
M  V30 37 C 6.773078 5.415781 -15.534324 0
M  V30 38 C 9.078098 4.611099 -19.373834 0 CFG=1
M  V30 39 C 4.186621 8.787724 -20.953908 0
M  V30 40 O 9.044737 4.570238 -15.766645 0
M  V30 41 C 9.970355 5.603880 -13.002148 0
M  V30 42 C 9.779126 4.145959 -16.908749 0
M  V30 43 C 10.205323 6.401167 -9.192638 0 CFG=1
M  V30 44 H 7.110305 6.565235 -19.123134 0
M  V30 45 H 8.600845 7.969711 -22.742689 0
M  V30 46 H 7.819916 6.369880 -23.003303 0
M  V30 47 H 11.831579 6.801055 -10.572014 0
M  V30 48 H 11.233259 8.242079 -9.814195 0
M  V30 49 H 6.999606 -0.457463 -15.903324 0
M  V30 50 H 7.770592 5.975348 -10.920547 0
M  V30 51 H 6.741548 3.575031 -11.790244 0
M  V30 52 H 7.408454 3.965171 -16.766263 0
M  V30 53 H 8.665655 2.928920 -20.794245 0
M  V30 54 H 7.254154 1.940855 -21.209979 0
M  V30 55 H 9.541074 4.984567 -21.481440 0
M  V30 56 H 7.826161 6.465480 -13.985507 0
M  V30 57 H 6.191195 6.946708 -14.180280 0
M  V30 58 H 8.576649 7.854194 -5.385770 0
M  V30 59 H 8.966244 8.902569 -6.626567 0
M  V30 60 H 9.048453 6.019144 -17.723772 0
M  V30 61 H 10.647601 5.571498 -18.238564 0
M  V30 62 H 4.950518 8.159045 -19.018285 0
M  V30 63 H 10.574551 7.990194 -12.284312 0
M  V30 64 H 9.173370 8.150428 -11.234826 0
M  V30 65 H 6.792703 1.330859 -12.006798 0
M  V30 66 H 8.439148 7.405626 -8.850099 0
M  V30 67 H 10.140360 4.371394 -9.887240 0
M  V30 68 H 8.703244 4.793222 -9.007553 0
M  V30 69 H 7.456453 1.752254 -16.921295 0
M  V30 70 H 6.234248 5.787781 -12.176418 0
M  V30 71 H 6.665454 -0.663794 -13.457472 0
M  V30 72 H 5.916642 8.393943 -23.894886 0
M  V30 73 H 10.014402 7.389143 -19.508718 0
M  V30 74 H 10.523722 7.247364 -21.260752 0
M  V30 75 H 3.741315 9.289331 -23.021885 0
M  V30 76 H 8.812571 5.981576 -6.892635 0
M  V30 77 H 10.320416 6.874165 -6.602977 0
M  V30 78 H 4.365669 5.353258 -13.823095 0
M  V30 79 H 4.982987 3.752423 -13.985021 0
M  V30 80 H 4.564783 4.280991 -12.375592 0
M  V30 81 H 7.068125 6.171325 -16.262601 0
M  V30 82 H 5.743506 5.190221 -15.795656 0
M  V30 83 H 9.622540 3.689297 -19.577414 0
M  V30 84 H 3.252682 9.167646 -20.565455 0
M  V30 85 H 10.647687 5.968452 -13.758891 0
M  V30 86 H 10.824999 4.088990 -16.604599 0
M  V30 87 H 9.506362 3.134890 -17.215638 0
M  V30 88 H 10.976747 6.024733 -8.520923 0
M  V30 89 H 7.617046 7.921255 -6.729150 0
M  V30 END ATOM
M  V30 BEGIN BOND
M  V30 1 1 5 3
M  V30 2 1 6 1 CFG=1
M  V30 3 1 6 2
M  V30 4 1 10 3
M  V30 5 1 11 5
M  V30 6 1 13 6
M  V30 7 1 16 9
M  V30 8 1 16 12
M  V30 9 1 18 2
M  V30 10 1 19 8
M  V30 11 1 22 1
M  V30 12 1 22 18
M  V30 13 2 22 21
M  V30 14 1 23 8
M  V30 15 1 23 10
M  V30 16 1 23 17
M  V30 17 1 24 4
M  V30 18 1 24 19
M  V30 19 2 25 16
M  V30 20 2 26 3
M  V30 21 1 28 8
M  V30 22 2 29 5
M  V30 23 1 29 7
M  V30 24 1 30 10
M  V30 25 1 30 14
M  V30 26 2 31 7
M  V30 27 1 31 26
M  V30 28 2 32 18
M  V30 29 1 33 6
M  V30 30 1 33 13
M  V30 31 1 34 32
M  V30 32 1 35 15
M  V30 33 1 35 27
M  V30 34 1 36 30
M  V30 35 1 37 11
M  V30 36 1 37 14
M  V30 37 1 38 9
M  V30 38 1 38 13
M  V30 39 1 38 20
M  V30 40 1 39 21
M  V30 41 2 39 34
M  V30 42 1 40 11
M  V30 43 1 41 17
M  V30 44 2 41 19
M  V30 45 1 42 20
M  V30 46 1 42 40
M  V30 47 1 43 4
M  V30 48 1 43 27
M  V30 49 1 43 28
M  V30 50 1 44 1
M  V30 51 1 45 2
M  V30 52 1 46 2
M  V30 53 1 47 4
M  V30 54 1 48 4
M  V30 55 1 49 7
M  V30 56 1 8 50 CFG=1
M  V30 57 1 10 51 CFG=1
M  V30 58 1 11 52 CFG=3
M  V30 59 1 53 12
M  V30 60 1 54 12
M  V30 61 1 13 55 CFG=3
M  V30 62 1 56 14
M  V30 63 1 57 14
M  V30 64 1 58 15
M  V30 65 1 59 15
M  V30 66 1 60 20
M  V30 67 1 61 20
M  V30 68 1 62 21
M  V30 69 1 63 24
M  V30 70 1 64 24
M  V30 71 1 65 26
M  V30 72 1 66 27
M  V30 73 1 67 28
M  V30 74 1 68 28
M  V30 75 1 69 29
M  V30 76 1 30 70 CFG=1
M  V30 77 1 71 31
M  V30 78 1 72 32
M  V30 79 1 73 33
M  V30 80 1 74 33
M  V30 81 1 75 34
M  V30 82 1 76 35
M  V30 83 1 77 35
M  V30 84 1 78 36
M  V30 85 1 79 36
M  V30 86 1 80 36
M  V30 87 1 81 37
M  V30 88 1 82 37
M  V30 89 1 38 83 CFG=3
M  V30 90 1 84 39
M  V30 91 1 85 41
M  V30 92 1 86 42
M  V30 93 1 87 42
M  V30 94 1 43 88 CFG=1
M  V30 95 1 89 15
M  V30 END BOND
M  V30 END CTAB
M  END
>  <i_epik_Tot_Q>  (1) 
1

>  <i_epik_Tot_abs_Q>  (1) 
1

>  <i_i_glide_confnum>  (1) 
218

>  <i_i_glide_lignum>  (1) 
67

>  <i_i_glide_posenum>  (1) 
131

>  <i_i_glide_rotatable_bonds>  (1) 
10

>  <i_lp_mmshare_version>  (1) 
72125

>  <i_m_source_file_index>  (1) 
41

>  <i_f3d_flags>  (1) 
0

>  <num_sample>  (1) 
100

>  <b_lp_Chiralities_Consistent>  (1) 
1

>  <r_epik_Charging_Adjusted_Penalty>  (1) 
0.00021732795814705282

>  <r_epik_Ionization_Penalty>  (1) 
0.031196808922400864

>  <r_epik_Ionization_Penalty_Charging>  (1) 
0.00021732795814705282

>  <r_epik_Ionization_Penalty_Neutral>  (1) 
0.030979480964253809

>  <r_epik_State_Penalty>  (1) 
-0

>  <r_glide_ring_energy>  (1) 
0

>  <r_i_docking_score>  (1) 
-6.0201970406674636

>  <r_i_glide_ecoul>  (1) 
-8.0325063070708023

>  <r_i_glide_eff_state_penalty>  (1) 
-0

>  <r_i_glide_einternal>  (1) 
34.281738920443502

>  <r_i_glide_emodel>  (1) 
-33.36648401510466

>  <r_i_glide_emodel_strain>  (1) 
3.1251410173094314

>  <r_i_glide_energy>  (1) 
-37.237037426375338

>  <r_i_glide_erotb>  (1) 
0.31563021086283022

>  <r_i_glide_esite>  (1) 
-0.1615921510433857

>  <r_i_glide_evdw>  (1) 
-29.204531119304534

>  <r_i_glide_gscore>  (1) 
-6.0201970406674636

>  <r_i_glide_gscore_strain>  (1) 
0

>  <r_i_glide_hbond>  (1) 
-0.35999999999999999

>  <r_i_glide_ligand_efficiency>  (1) 
-0.1400045823411038

>  <r_i_glide_ligand_efficiency_ln>  (1) 
-1.2644284832355768

>  <r_i_glide_ligand_efficiency_sa>  (1) 
-0.49049178221907658

>  <r_i_glide_lipo>  (1) 
-2.6700055859712624

>  <r_i_glide_metal>  (1) 
-0

>  <r_i_glide_rewards>  (1) 
-0.47912701248979805

>  <r_lp_Energy>  (1) 
53.785801999999997

>  <r_lp_tautomer_probability>  (1) 
1

>  <s_epik_Chemistry_Notes>  (1) 
This compound has an ester and may undergo hydrolysis at high or low pH. This compound contains an acetal/aminal-like group ( X-CH(R)-Y where X, Y are N, S, or O) that may be acid/base labile, releasing an aldehyde. This compound has a N-S or N-O group and may undergo hydrolysis at high or low pH.

>  <s_epik_cmdline>  (1) 
J2VwaWtfcHl0aG9uJywgJy1waHQnLCAnMS4wJywgJy1waCcsICc3LjQnLCAnLXRuJywgJzgnLCAnLW1hJywgJzUwMCcsICctaW1hZScsICc8aW5maWxlLm1hZT4nLCAnLW9tYWUnLCAnPG91dGZpbGUubWFlPic=

>  <s_epik_input>  (1) 
W2NIXTFbY0hdW2NIXVtjSF1jKFtDSDJdMiljMVtOSF1bQ0BAXTIzW0NAQEhdKFtDSDJdMylbQ0BASF0oT0MoPU8pW05IMl0pW0NIMl1bQ0gyXU9bQ0BASF0oYyhjNDUpW2NIXVtjSF1bY0hdW2NIXTUpW0NIMl1bQ0gyXVtDQEBIXShbQ0gzXSlbQ0BASF00TjZPW0NIXT1DKFtDQEBIXTY3KVtDSDJdW0NIMl1bQ0BIXShbQ0gyXTcpW05IXVtDSDJdW05IMl0=

>  <s_glide_docking_method>  (1) 
confgen

>  <s_i_glide_gridfile>  (1) 
gpcr_drd2_6luq_protein_autoprepared_prepared

>  <s_lp_Force_Field>  (1) 
S-OPLS

>  <s_lp_Variant>  (1) 
DiffSBDD_40-2

>  <s_m_source_file>  (1) 
generated_generic_title2_ligand_DiffSBDD_2026-06-23_prepared.sdf

>  <GenAI_Model>  (1) 
DiffSBDD

>  <Protein>  (1) 
generic_title2

$$$$
DiffSBDD_24
     RDKit          3D

  0  0  0  0  0  0  0  0  0  0999 V3000
M  V30 BEGIN CTAB
M  V30 COUNTS 68 69 0 0 1
M  V30 BEGIN ATOM
M  V30 1 C 6.247208 4.407503 -13.457719 0
M  V30 2 C 13.404938 9.619612 -6.121425 0
M  V30 3 C 10.609104 6.480972 -7.034078 0
M  V30 4 O 12.627299 9.190225 -7.185031 0
M  V30 5 C 8.643897 5.277009 -8.280796 0
M  V30 6 C 8.822439 3.397549 -17.031318 0
M  V30 7 C 8.048754 5.041021 -15.155936 0 CFG=2
M  V30 8 C 11.039462 7.724507 -6.247214 0
M  V30 9 C 13.027257 9.590194 -4.816846 0
M  V30 10 C 9.139223 6.527129 -7.510080 0
M  V30 11 C 8.836289 5.801643 -12.260345 0 CFG=1
M  V30 12 C 7.452003 2.160388 -13.008541 0
M  V30 13 C 6.180587 1.324856 -12.789696 0
M  V30 14 C 11.268805 7.749350 -4.913416 0
M  V30 15 C 8.552606 4.857477 -16.619070 0
M  V30 16 O 8.975407 4.390233 -14.275818 0
M  V30 17 C 11.238802 8.960547 -7.065953 0
M  V30 18 C 7.330703 3.667271 -12.655748 0 CFG=1
M  V30 19 C 8.401911 5.990233 -10.784985 0
M  V30 20 C 9.132230 5.128863 -9.738762 0
M  V30 21 C 11.703137 9.071549 -4.279488 0
M  V30 22 C 11.101711 6.537345 -4.091182 0
M  V30 23 C 6.630857 4.473807 -14.937657 0
M  V30 24 O 9.777836 5.551471 -16.714642 0
M  V30 25 C 11.375416 6.493605 -2.771100 0
M  V30 26 O 10.200038 6.154940 -12.363763 0
M  V30 27 C 8.693241 4.375141 -12.865744 0 CFG=2
M  V30 28 C 7.610350 5.513789 -17.645547 0
M  V30 29 H 5.274657 3.931092 -13.338222 0
M  V30 30 H 6.126332 5.419004 -13.068706 0
M  V30 31 H 14.358588 9.990095 -6.451264 0
M  V30 32 H 10.825164 5.567308 -6.517346 0
M  V30 33 H 11.255106 6.429273 -7.910403 0
M  V30 34 H 7.554268 5.266532 -8.281383 0
M  V30 35 H 8.944130 4.390263 -7.724851 0
M  V30 36 H 7.915025 2.794728 -17.018771 0
M  V30 37 H 9.221550 3.348208 -18.045250 0
M  V30 38 H 9.549783 2.914916 -16.385030 0
M  V30 39 H 8.030281 6.108495 -14.937822 0
M  V30 40 H 13.718277 9.959346 -4.073221 0
M  V30 41 H 8.975392 7.414861 -8.120028 0
M  V30 42 H 8.509727 6.650988 -6.628630 0
M  V30 43 H 8.264981 6.520955 -12.843500 0
M  V30 44 H 7.785669 2.034253 -14.038502 0
M  V30 45 H 8.244742 1.725006 -12.399441 0
M  V30 46 H 6.378442 0.270816 -12.988166 0
M  V30 47 H 5.818184 1.398497 -11.764978 0
M  V30 48 H 5.376323 1.628187 -13.459269 0
M  V30 49 H 10.817383 8.837220 -8.063487 0
M  V30 50 H 10.740107 9.817445 -6.619252 0
M  V30 51 H 7.062167 3.720386 -11.601016 0
M  V30 52 H 8.575449 7.035292 -10.531266 0
M  V30 53 H 7.326011 5.836790 -10.701527 0
M  V30 54 H 9.067709 4.084161 -10.036834 0
M  V30 55 H 10.175408 5.386201 -9.763835 0
M  V30 56 H 10.940265 9.829208 -4.454856 0
M  V30 57 H 11.784505 9.062228 -3.199892 0
M  V30 58 H 10.742595 5.636776 -4.552012 0
M  V30 59 H 5.900536 5.084013 -15.469243 0
M  V30 60 H 6.575412 3.471763 -15.358007 0
M  V30 61 H 10.352080 5.210642 -16.043801 0
M  V30 62 H 11.234587 5.590228 -2.211368 0
M  V30 63 H 11.740518 7.349965 -2.236507 0
M  V30 64 H 10.546383 5.732320 -13.138566 0
M  V30 65 H 9.460765 3.752054 -12.402938 0
M  V30 66 H 6.666959 4.973410 -17.723949 0
M  V30 67 H 7.375272 6.542947 -17.380638 0
M  V30 68 H 8.055451 5.525028 -18.641471 0
M  V30 END ATOM
M  V30 BEGIN BOND
M  V30 1 1 4 2
M  V30 2 1 8 3
M  V30 3 2 9 2
M  V30 4 1 10 3
M  V30 5 1 10 5
M  V30 6 1 13 12
M  V30 7 2 14 8
M  V30 8 1 15 6
M  V30 9 1 15 7
M  V30 10 1 16 7
M  V30 11 1 17 4
M  V30 12 1 17 8
M  V30 13 1 18 1
M  V30 14 1 18 12
M  V30 15 1 19 11
M  V30 16 1 20 5
M  V30 17 1 20 19
M  V30 18 1 21 9
M  V30 19 1 21 14
M  V30 20 1 22 14
M  V30 21 1 23 1
M  V30 22 1 23 7
M  V30 23 1 24 15
M  V30 24 2 25 22
M  V30 25 1 26 11
M  V30 26 1 27 11
M  V30 27 1 27 16
M  V30 28 1 27 18
M  V30 29 1 28 15
M  V30 30 1 29 1
M  V30 31 1 30 1
M  V30 32 1 31 2
M  V30 33 1 32 3
M  V30 34 1 33 3
M  V30 35 1 34 5
M  V30 36 1 35 5
M  V30 37 1 36 6
M  V30 38 1 37 6
M  V30 39 1 38 6
M  V30 40 1 7 39 CFG=1
M  V30 41 1 40 9
M  V30 42 1 41 10
M  V30 43 1 42 10
M  V30 44 1 11 43 CFG=3
M  V30 45 1 44 12
M  V30 46 1 45 12
M  V30 47 1 46 13
M  V30 48 1 47 13
M  V30 49 1 48 13
M  V30 50 1 49 17
M  V30 51 1 50 17
M  V30 52 1 18 51 CFG=1
M  V30 53 1 52 19
M  V30 54 1 53 19
M  V30 55 1 54 20
M  V30 56 1 55 20
M  V30 57 1 56 21
M  V30 58 1 57 21
M  V30 59 1 58 22
M  V30 60 1 59 23
M  V30 61 1 60 23
M  V30 62 1 61 24
M  V30 63 1 62 25
M  V30 64 1 63 25
M  V30 65 1 64 26
M  V30 66 1 27 65 CFG=1
M  V30 67 1 66 28
M  V30 68 1 67 28
M  V30 69 1 68 28
M  V30 END BOND
M  V30 END CTAB
M  END
>  <i_epik_Tot_Q>  (1) 
0

>  <i_epik_Tot_abs_Q>  (1) 
0

>  <i_i_glide_confnum>  (1) 
1386

>  <i_i_glide_lignum>  (1) 
42

>  <i_i_glide_posenum>  (1) 
305

>  <i_i_glide_rotatable_bonds>  (1) 
12

>  <i_lp_mmshare_version>  (1) 
72125

>  <i_m_source_file_index>  (1) 
25

>  <i_f3d_flags>  (1) 
0

>  <num_sample>  (1) 
100

>  <b_lp_Chiralities_Consistent>  (1) 
1

>  <r_epik_Charging_Adjusted_Penalty>  (1) 
0

>  <r_epik_Ionization_Penalty>  (1) 
1.101119789916782e-07

>  <r_epik_Ionization_Penalty_Charging>  (1) 
0

>  <r_epik_Ionization_Penalty_Neutral>  (1) 
1.101119789916782e-07

>  <r_epik_State_Penalty>  (1) 
-0

>  <r_glide_ring_energy>  (1) 
1.2053301093634785

>  <r_i_docking_score>  (1) 
-6.0175874902445727

>  <r_i_glide_ecoul>  (1) 
-3.4048825192158669

>  <r_i_glide_eff_state_penalty>  (1) 
-0

>  <r_i_glide_einternal>  (1) 
10.884289245453864

>  <r_i_glide_emodel>  (1) 
-37.517902992541231

>  <r_i_glide_emodel_strain>  (1) 
0.36578200581390519

>  <r_i_glide_energy>  (1) 
-34.459135944645162

>  <r_i_glide_erotb>  (1) 
1.1402384900908482

>  <r_i_glide_esite>  (1) 
0

>  <r_i_glide_evdw>  (1) 
-31.054253425429298

>  <r_i_glide_gscore>  (1) 
-6.0175874902445727

>  <r_i_glide_gscore_strain>  (1) 
0

>  <r_i_glide_hbond>  (1) 
-0.035051032258355951

>  <r_i_glide_ligand_efficiency>  (1) 
-0.21491383893730617

>  <r_i_glide_ligand_efficiency_ln>  (1) 
-1.3890358767945625

>  <r_i_glide_ligand_efficiency_sa>  (1) 
-0.65260499322048637

>  <r_i_glide_lipo>  (1) 
-3.6575062868840105

>  <r_i_glide_metal>  (1) 
-0

>  <r_i_glide_rewards>  (1) 
-1.4018236120392098

>  <r_lp_Energy>  (1) 
28.105841999999999

>  <r_lp_tautomer_probability>  (1) 
1

>  <s_epik_cmdline>  (1) 
J2VwaWtfcHl0aG9uJywgJy1waHQnLCAnMS4wJywgJy1waCcsICc3LjQnLCAnLXRuJywgJzgnLCAnLW1hJywgJzUwMCcsICctaW1hZScsICc8aW5maWxlLm1hZT4nLCAnLW9tYWUnLCAnPG91dGZpbGUubWFlPic=

>  <s_epik_input>  (1) 
W0NIM11DKFtPSF0pKFtDSDNdKVtDQEBIXTFPW0NASF0oW0NAQEhdKFtDSDJdW0NIMl0xKVtDSDJdW0NIM10pW0NASF0oW09IXSlbQ0gyXVtDSDJdW0NIMl1bQ0gyXVtDSDJdQzI9QyhbQ0hdPVtDSDJdKVtDSDJdW0NIXT1bQ0hdT1tDSDJdMg==

>  <s_glide_docking_method>  (1) 
confgen

>  <s_i_glide_gridfile>  (1) 
gpcr_drd2_6luq_protein_autoprepared_prepared

>  <s_lp_Force_Field>  (1) 
S-OPLS

>  <s_lp_Variant>  (1) 
DiffSBDD_24-1

>  <s_m_source_file>  (1) 
generated_generic_title2_ligand_DiffSBDD_2026-06-23_prepared.sdf

>  <GenAI_Model>  (1) 
DiffSBDD

>  <Protein>  (1) 
generic_title2

$$$$
DiffSBDD_83
     RDKit          3D

  0  0  0  0  0  0  0  0  0  0999 V3000
M  V30 BEGIN CTAB
M  V30 COUNTS 45 47 0 0 1
M  V30 BEGIN ATOM
M  V30 1 C 11.111056 8.335503 -6.558409 0
M  V30 2 C 6.575423 6.220357 -16.275708 0
M  V30 3 C 5.950047 6.790534 -13.987931 0
M  V30 4 C 7.409013 4.357881 -11.616844 0
M  V30 5 F 8.134633 4.447050 -16.659822 0
M  V30 6 C 5.840500 7.012446 -15.374622 0
M  V30 7 C 7.538243 4.982214 -14.406300 0
M  V30 8 C 10.928499 7.492567 -8.708930 0 CFG=1
M  V30 9 C 7.425001 5.206599 -15.792032 0
M  V30 10 N 11.779786 9.189426 -7.185138 0
M  V30 11 N 8.975416 6.787063 -10.304243 0 CFG=1 CHG=1
M  V30 12 C 10.548086 7.147050 -7.251651 0 CFG=2
M  V30 13 C 6.793772 5.776296 -13.495876 0
M  V30 14 C 9.068812 6.972710 -6.900932 0
M  V30 15 C 9.890814 7.550365 -11.139401 0
M  V30 16 O 6.881508 5.575617 -12.131801 0
M  V30 17 C 8.912041 4.484494 -11.310065 0
M  V30 18 F 6.467946 6.435421 -17.608411 0
M  V30 19 C 13.336923 8.372442 -8.864143 0
M  V30 20 C 9.193550 5.339508 -10.062287 0
M  V30 21 C 9.775522 7.830060 -9.655827 0 CFG=2
M  V30 22 C 11.876595 8.726030 -8.557626 0 CFG=1
M  V30 23 H 10.903244 8.414138 -5.487808 0
M  V30 24 H 5.381957 7.399220 -13.298882 0
M  V30 25 H 7.201191 3.509809 -12.269582 0
M  V30 26 H 6.867460 4.131605 -10.697510 0
M  V30 27 H 5.190775 7.791323 -15.746873 0
M  V30 28 H 8.193743 4.205162 -14.047233 0
M  V30 29 H 11.503648 6.681508 -9.142713 0
M  V30 30 H 8.975422 6.669694 -5.861230 0
M  V30 31 H 8.525968 7.908141 -7.027175 0
M  V30 32 H 8.575376 6.204639 -7.486380 0
M  V30 33 H 9.315526 8.130427 -11.858359 0
M  V30 34 H 10.691223 6.918832 -11.520455 0
M  V30 35 H 9.464075 4.856953 -12.173228 0
M  V30 36 H 9.302522 3.482800 -11.127548 0
M  V30 37 H 13.471334 8.062786 -9.900241 0
M  V30 38 H 14.013922 9.190215 -8.661808 0
M  V30 39 H 13.680616 7.584527 -8.213388 0
M  V30 40 H 10.175408 5.118666 -9.676835 0
M  V30 41 H 8.511894 5.020658 -9.275553 0
M  V30 42 H 9.137230 8.660295 -9.356735 0
M  V30 43 H 11.573100 9.532202 -9.228340 0
M  V30 44 H 8.002760 7.113205 -10.226523 0
M  V30 45 H 11.106448 6.266762 -6.929608 0
M  V30 END ATOM
M  V30 BEGIN BOND
M  V30 1 1 6 2
M  V30 2 2 6 3
M  V30 3 2 9 2
M  V30 4 1 9 5
M  V30 5 1 9 7
M  V30 6 2 10 1
M  V30 7 1 12 1
M  V30 8 1 12 8
M  V30 9 1 13 3
M  V30 10 2 13 7
M  V30 11 1 14 12
M  V30 12 1 15 11
M  V30 13 1 16 4
M  V30 14 1 16 13
M  V30 15 1 17 4
M  V30 16 1 18 2
M  V30 17 1 20 11
M  V30 18 1 20 17
M  V30 19 1 21 8
M  V30 20 1 21 11
M  V30 21 1 21 15
M  V30 22 1 22 8
M  V30 23 1 22 10
M  V30 24 1 22 19
M  V30 25 1 23 1
M  V30 26 1 24 3
M  V30 27 1 25 4
M  V30 28 1 26 4
M  V30 29 1 27 6
M  V30 30 1 28 7
M  V30 31 1 8 29 CFG=3
M  V30 32 1 30 14
M  V30 33 1 31 14
M  V30 34 1 32 14
M  V30 35 1 33 15
M  V30 36 1 34 15
M  V30 37 1 35 17
M  V30 38 1 36 17
M  V30 39 1 37 19
M  V30 40 1 38 19
M  V30 41 1 39 19
M  V30 42 1 40 20
M  V30 43 1 41 20
M  V30 44 1 21 42 CFG=3
M  V30 45 1 22 43 CFG=3
M  V30 46 1 11 44 CFG=3
M  V30 47 1 12 45 CFG=1
M  V30 END BOND
M  V30 END CTAB
M  END
>  <i_epik_Tot_Q>  (1) 
1

>  <i_epik_Tot_abs_Q>  (1) 
1

>  <i_i_glide_confnum>  (1) 
35

>  <i_i_glide_lignum>  (1) 
147

>  <i_i_glide_posenum>  (1) 
195

>  <i_i_glide_rotatable_bonds>  (1) 
6

>  <i_lp_mmshare_version>  (1) 
72125

>  <i_m_source_file_index>  (1) 
84

>  <i_f3d_flags>  (1) 
0

>  <num_sample>  (1) 
100

>  <b_lp_Chiralities_Consistent>  (1) 
1

>  <r_epik_Charging_Adjusted_Penalty>  (1) 
0.43105765877043739

>  <r_epik_Ionization_Penalty>  (1) 
0.36079924242796862

>  <r_epik_Ionization_Penalty_Charging>  (1) 
0.10499320228047652

>  <r_epik_Ionization_Penalty_Neutral>  (1) 
0.25580604014749209

>  <r_epik_State_Penalty>  (1) 
0.32606445648996085

>  <r_glide_ring_energy>  (1) 
0

>  <r_i_docking_score>  (1) 
-6.0137955592300782

>  <r_i_glide_ecoul>  (1) 
-8.2309764419220173

>  <r_i_glide_eff_state_penalty>  (1) 
0.32606445648996085

>  <r_i_glide_einternal>  (1) 
4.4665206901689043

>  <r_i_glide_emodel>  (1) 
-49.887320290028597

>  <r_i_glide_emodel_strain>  (1) 
2.0271160884251103

>  <r_i_glide_energy>  (1) 
-35.425066957610909

>  <r_i_glide_erotb>  (1) 
0.96718860002963114

>  <r_i_glide_esite>  (1) 
-0.10000000000000001

>  <r_i_glide_evdw>  (1) 
-27.194090515688888

>  <r_i_glide_gscore>  (1) 
-6.3398600157200393

>  <r_i_glide_gscore_strain>  (1) 
0

>  <r_i_glide_hbond>  (1) 
-0.19477505006945478

>  <r_i_glide_ligand_efficiency>  (1) 
-0.27335434360136718

>  <r_i_glide_ligand_efficiency_ln>  (1) 
-1.469990993198661

>  <r_i_glide_ligand_efficiency_sa>  (1) 
-0.76594962197651772

>  <r_i_glide_lipo>  (1) 
-1.5421590093235689

>  <r_i_glide_metal>  (1) 
-0

>  <r_i_glide_rewards>  (1) 
-2.8757635642838988

>  <r_lp_Energy>  (1) 
26.820309999999999

>  <r_lp_tautomer_probability>  (1) 
0.99998600000000004

>  <s_epik_Chemistry_Notes>  (1) 
This compound has an imine and may undergo hydrolysis.

>  <s_epik_cmdline>  (1) 
J2VwaWtfcHl0aG9uJywgJy1waHQnLCAnMS4wJywgJy1waCcsICc3LjQnLCAnLXRuJywgJzgnLCAnLW1hJywgJzUwMCcsICctaW1hZScsICc8aW5maWxlLm1hZT4nLCAnLW9tYWUnLCAnPG91dGZpbGUubWFlPic=

>  <s_epik_input>  (1) 
W0NIM11bQ0BASF0xTj1bQ0hdW0NAQEhdKFtDSDNdKVtDQEhdMVtDQEhdMltDSDJdTjJbQ0gyXVtDSDJdW0NIMl1PYyhbY0hdYzNGKVtjSF1bY0hdYzNG

>  <s_glide_docking_method>  (1) 
confgen

>  <s_i_glide_gridfile>  (1) 
gpcr_drd2_6luq_protein_autoprepared_prepared

>  <s_lp_Force_Field>  (1) 
S-OPLS

>  <s_lp_Variant>  (1) 
DiffSBDD_83-1

>  <s_m_source_file>  (1) 
generated_generic_title2_ligand_DiffSBDD_2026-06-23_prepared.sdf

>  <GenAI_Model>  (1) 
DiffSBDD

>  <Protein>  (1) 
generic_title2

$$$$
DiffSBDD_11
     RDKit          3D

  0  0  0  0  0  0  0  0  0  0999 V3000
M  V30 BEGIN CTAB
M  V30 COUNTS 44 44 0 0 1
M  V30 BEGIN ATOM
M  V30 1 C 8.430211 5.486756 -11.523315 0 CFG=1
M  V30 2 C 11.764020 9.609804 -5.156977 0
M  V30 3 C 9.754987 6.195329 -11.211285 0
M  V30 4 C 10.769949 8.674526 -8.781927 0
M  V30 5 C 13.240845 8.366763 -2.634857 0
M  V30 6 C 10.706679 8.704996 -7.231049 0 CFG=1
M  V30 7 C 10.975422 7.291198 -5.081716 0
M  V30 8 C 9.420244 8.334626 -9.409716 0
M  V30 9 C 10.639530 7.307199 -6.554451 0 CFG=2
M  V30 10 C 8.663447 4.018206 -11.901071 0
M  V30 11 N 7.498798 5.590227 -10.385029 0 CHG=1
M  V30 12 N 11.495449 8.323624 -4.470175 0 CHG=1
M  V30 13 C 11.775410 8.294462 -3.006073 0
M  V30 14 C 11.557982 6.269399 -7.185026 0
M  V30 15 C 11.850770 9.540244 -6.674716 0
M  V30 16 S 9.552310 7.990223 -11.185026 0
M  V30 17 H 7.961288 5.982691 -12.373904 0
M  V30 18 H 10.974912 10.295947 -4.843421 0
M  V30 19 H 12.706396 9.990225 -4.768217 0
M  V30 20 H 10.173296 5.856495 -10.264911 0
M  V30 21 H 10.486213 5.966869 -11.987992 0
M  V30 22 H 11.075293 9.640845 -9.182700 0
M  V30 23 H 11.546162 7.997755 -9.135089 0
M  V30 24 H 13.372651 8.249871 -1.559197 0
M  V30 25 H 13.664226 9.331736 -2.903089 0
M  V30 26 H 13.775409 7.567353 -3.142256 0
M  V30 27 H 9.780713 9.206384 -6.950286 0
M  V30 28 H 10.789200 6.401428 -4.487383 0
M  V30 29 H 8.975416 7.479260 -8.904331 0
M  V30 30 H 8.754513 9.190217 -9.276948 0
M  V30 31 H 9.296890 3.939119 -12.785454 0
M  V30 32 H 7.725099 3.510268 -12.126449 0
M  V30 33 H 9.162926 3.475338 -11.098574 0
M  V30 34 H 7.849943 5.073004 -9.594184 0
M  V30 35 H 6.591600 5.229231 -10.640468 0
M  V30 36 H 11.249697 9.139141 -2.555878 0
M  V30 37 H 11.375410 7.371462 -2.586451 0
M  V30 38 H 11.563910 5.322584 -6.647782 0
M  V30 39 H 12.575414 6.649907 -7.185025 0
M  V30 40 H 11.257403 6.035803 -8.203323 0
M  V30 41 H 12.814022 9.135075 -6.985687 0
M  V30 42 H 11.775412 10.554065 -7.062927 0
M  V30 43 H 7.375411 6.572533 -10.087899 0
M  V30 44 H 9.616426 6.939071 -6.645778 0
M  V30 END ATOM
M  V30 BEGIN BOND
M  V30 1 1 3 1
M  V30 2 1 6 4
M  V30 3 1 8 4
M  V30 4 1 9 6
M  V30 5 1 9 7
M  V30 6 1 10 1
M  V30 7 1 11 1
M  V30 8 1 12 2
M  V30 9 2 12 7
M  V30 10 1 13 5
M  V30 11 1 13 12
M  V30 12 1 14 9
M  V30 13 1 15 2
M  V30 14 1 15 6
M  V30 15 1 16 3
M  V30 16 1 16 8
M  V30 17 1 1 17 CFG=3
M  V30 18 1 18 2
M  V30 19 1 19 2
M  V30 20 1 20 3
M  V30 21 1 21 3
M  V30 22 1 22 4
M  V30 23 1 23 4
M  V30 24 1 24 5
M  V30 25 1 25 5
M  V30 26 1 26 5
M  V30 27 1 6 27 CFG=3
M  V30 28 1 28 7
M  V30 29 1 29 8
M  V30 30 1 30 8
M  V30 31 1 31 10
M  V30 32 1 32 10
M  V30 33 1 33 10
M  V30 34 1 34 11
M  V30 35 1 35 11
M  V30 36 1 36 13
M  V30 37 1 37 13
M  V30 38 1 38 14
M  V30 39 1 39 14
M  V30 40 1 40 14
M  V30 41 1 41 15
M  V30 42 1 42 15
M  V30 43 1 43 11
M  V30 44 1 9 44 CFG=1
M  V30 END BOND
M  V30 END CTAB
M  END
>  <i_epik_Tot_Q>  (1) 
2

>  <i_epik_Tot_abs_Q>  (1) 
2

>  <i_i_glide_confnum>  (1) 
4

>  <i_i_glide_lignum>  (1) 
22

>  <i_i_glide_posenum>  (1) 
377

>  <i_i_glide_rotatable_bonds>  (1) 
6

>  <i_lp_mmshare_version>  (1) 
72125

>  <i_m_source_file_index>  (1) 
12

>  <i_f3d_flags>  (1) 
0

>  <num_sample>  (1) 
100

>  <b_lp_Chiralities_Consistent>  (1) 
1

>  <r_epik_Charging_Adjusted_Penalty>  (1) 
0.13380573077515515

>  <r_epik_Ionization_Penalty>  (1) 
0.13380575400753034

>  <r_epik_Ionization_Penalty_Charging>  (1) 
0.0076430572427279801

>  <r_epik_Ionization_Penalty_Neutral>  (1) 
0.12616269676480235

>  <r_epik_State_Penalty>  (1) 
0.12616267353242716

>  <r_glide_ring_energy>  (1) 
0

>  <r_i_docking_score>  (1) 
-6.0006241116370713

>  <r_i_glide_ecoul>  (1) 
-10.236122912621919

>  <r_i_glide_eff_state_penalty>  (1) 
0.12616267353242716

>  <r_i_glide_einternal>  (1) 
4.279869322112229

>  <r_i_glide_emodel>  (1) 
-36.678991428777216

>  <r_i_glide_emodel_strain>  (1) 
0.24289436110961482

>  <r_i_glide_energy>  (1) 
-25.38434490573492

>  <r_i_glide_erotb>  (1) 
1.1639209444696645

>  <r_i_glide_esite>  (1) 
-0.10000000000000001

>  <r_i_glide_evdw>  (1) 
-15.148221993113003

>  <r_i_glide_gscore>  (1) 
-6.1267867851694984

>  <r_i_glide_gscore_strain>  (1) 
0

>  <r_i_glide_hbond>  (1) 
-0.18604281352039748

>  <r_i_glide_ligand_efficiency>  (1) 
-0.37503900697731696

>  <r_i_glide_ligand_efficiency_ln>  (1) 
-1.5905852859769216

>  <r_i_glide_ligand_efficiency_sa>  (1) 
-0.94503907884478378

>  <r_i_glide_lipo>  (1) 
-1.9963144734423848

>  <r_i_glide_metal>  (1) 
-0

>  <r_i_glide_rewards>  (1) 
-2.7155209061274421

>  <r_lp_Energy>  (1) 
22.875516999999999

>  <s_epik_Chemistry_Notes>  (1) 
This compound has an imine and may undergo hydrolysis.

>  <s_epik_cmdline>  (1) 
J2VwaWtfcHl0aG9uJywgJy1waHQnLCAnMS4wJywgJy1waCcsICc3LjQnLCAnLXRuJywgJzgnLCAnLW1hJywgJzUwMCcsICctaW1hZScsICc8aW5maWxlLm1hZT4nLCAnLW9tYWUnLCAnPG91dGZpbGUubWFlPic=

>  <s_epik_input>  (1) 
W0NIM11bQ0BASF0oW05IMl0pW0NIMl1TW0NIMl1bQ0gyXVtDQEhdMUMoW0NIM10pPVtDSF1OKFtDSDJdW0NIMl0xKVtDSDJdW0NIM10=

>  <s_glide_docking_method>  (1) 
confgen

>  <s_i_glide_gridfile>  (1) 
gpcr_drd2_6luq_protein_autoprepared_prepared

>  <s_lp_Force_Field>  (1) 
S-OPLS

>  <s_lp_Variant>  (1) 
DiffSBDD_11-2

>  <s_m_source_file>  (1) 
generated_generic_title2_ligand_DiffSBDD_2026-06-23_prepared.sdf

>  <GenAI_Model>  (1) 
DiffSBDD

>  <Protein>  (1) 
generic_title2

$$$$
DiffSBDD_14
     RDKit          3D

  0  0  0  0  0  0  0  0  0  0999 V3000
M  V30 BEGIN CTAB
M  V30 COUNTS 46 47 0 0 1
M  V30 BEGIN ATOM
M  V30 1 N 10.065200 7.175206 -11.355394 0
M  V30 2 C 6.004919 5.665284 -11.404934 0
M  V30 3 N 6.785250 6.749991 -11.985031 0
M  V30 4 C 10.762272 6.790178 -6.016561 0
M  V30 5 C 9.053109 6.252675 -11.114014 0
M  V30 6 C 6.450299 4.385875 -12.118884 0
M  V30 7 C 10.985101 7.179718 -9.030135 0
M  V30 8 C 7.487342 4.831730 -14.373713 0
M  V30 9 C 11.264240 6.671935 -4.709768 0
M  V30 10 C 10.769803 8.034780 -6.669691 0
M  V30 11 C 11.775455 7.807505 -4.038021 0
M  V30 12 C 11.775561 9.061404 -4.693479 0
M  V30 13 C 11.277459 9.173318 -6.007251 0
M  V30 14 C 10.924151 7.590243 -10.497422 0
M  V30 15 O 8.844810 5.567994 -10.110364 0
M  V30 16 C 8.847351 3.670613 -12.639630 0
M  V30 17 C 10.237704 8.143496 -8.090014 0
M  V30 18 N 12.970355 8.672186 -2.017078 0
M  V30 19 N 12.270530 7.699160 -2.721387 0
M  V30 20 C 8.084946 6.160144 -12.320591 0 CFG=1
M  V30 21 C 7.752613 4.739348 -12.855451 0
M  V30 22 O 12.543288 6.390236 -2.305599 0
M  V30 23 H 6.214863 5.589817 -10.337067 0
M  V30 24 H 4.940603 5.856861 -11.508668 0
M  V30 25 H 6.884130 7.475262 -11.273915 0
M  V30 26 H 10.371519 5.920007 -6.521744 0
M  V30 27 H 6.589462 3.590427 -11.387405 0
M  V30 28 H 5.678836 4.042062 -12.809133 0
M  V30 29 H 12.042171 7.240955 -8.772157 0
M  V30 30 H 10.737859 6.137460 -8.846876 0
M  V30 31 H 6.704113 5.556953 -14.598840 0
M  V30 32 H 8.383852 5.139884 -14.912713 0
M  V30 33 H 7.170745 3.872094 -14.783598 0
M  V30 34 H 11.251040 5.709545 -4.221874 0
M  V30 35 H 12.160482 9.935161 -4.190105 0
M  V30 36 H 11.286697 10.130780 -6.504476 0
M  V30 37 H 11.700861 8.302463 -10.785010 0
M  V30 38 H 9.031330 3.460373 -11.586545 0
M  V30 39 H 8.571931 2.722037 -13.101359 0
M  V30 40 H 9.787737 3.990327 -13.084128 0
M  V30 41 H 9.167187 7.930226 -8.098709 0
M  V30 42 H 10.355623 9.168878 -8.440847 0
M  V30 43 H 12.351173 9.450934 -1.799805 0
M  V30 44 H 13.311093 8.276565 -1.143819 0
M  V30 45 H 8.524450 6.752919 -13.124597 0
M  V30 46 H 11.756987 6.082165 -1.878245 0
M  V30 END ATOM
M  V30 BEGIN BOND
M  V30 1 1 3 2
M  V30 2 1 5 1
M  V30 3 1 6 2
M  V30 4 2 9 4
M  V30 5 1 10 4
M  V30 6 1 11 9
M  V30 7 2 12 11
M  V30 8 2 13 10
M  V30 9 1 13 12
M  V30 10 2 14 1
M  V30 11 1 14 7
M  V30 12 2 15 5
M  V30 13 1 17 7
M  V30 14 1 17 10
M  V30 15 1 19 11
M  V30 16 1 19 18
M  V30 17 1 20 3
M  V30 18 1 20 5
M  V30 19 1 21 6
M  V30 20 1 21 8
M  V30 21 1 21 16
M  V30 22 1 21 20
M  V30 23 1 22 19
M  V30 24 1 23 2
M  V30 25 1 24 2
M  V30 26 1 25 3
M  V30 27 1 26 4
M  V30 28 1 27 6
M  V30 29 1 28 6
M  V30 30 1 29 7
M  V30 31 1 30 7
M  V30 32 1 31 8
M  V30 33 1 32 8
M  V30 34 1 33 8
M  V30 35 1 34 9
M  V30 36 1 35 12
M  V30 37 1 36 13
M  V30 38 1 37 14
M  V30 39 1 38 16
M  V30 40 1 39 16
M  V30 41 1 40 16
M  V30 42 1 41 17
M  V30 43 1 42 17
M  V30 44 1 43 18
M  V30 45 1 44 18
M  V30 46 1 20 45 CFG=3
M  V30 47 1 46 22
M  V30 END BOND
M  V30 END CTAB
M  END
>  <i_epik_Tot_Q>  (1) 
0

>  <i_epik_Tot_abs_Q>  (1) 
0

>  <i_i_glide_confnum>  (1) 
395

>  <i_i_glide_lignum>  (1) 
27

>  <i_i_glide_posenum>  (1) 
301

>  <i_i_glide_rotatable_bonds>  (1) 
7

>  <i_lp_mmshare_version>  (1) 
72125

>  <i_m_source_file_index>  (1) 
15

>  <i_f3d_flags>  (1) 
0

>  <num_sample>  (1) 
100

>  <b_lp_Chiralities_Consistent>  (1) 
1

>  <r_epik_Charging_Adjusted_Penalty>  (1) 
0.22580691505965048

>  <r_epik_Ionization_Penalty>  (1) 
0.22909364713476901

>  <r_epik_Ionization_Penalty_Charging>  (1) 
0

>  <r_epik_Ionization_Penalty_Neutral>  (1) 
0.22909364713476901

>  <r_epik_State_Penalty>  (1) 
0.22580691505965048

>  <r_glide_ring_energy>  (1) 
0.68288214129490443

>  <r_i_docking_score>  (1) 
-5.9987089104822537

>  <r_i_glide_ecoul>  (1) 
-3.7135025716678323

>  <r_i_glide_eff_state_penalty>  (1) 
0.22580691505965048

>  <r_i_glide_einternal>  (1) 
2.351870347162075

>  <r_i_glide_emodel>  (1) 
-55.709426569119465

>  <r_i_glide_emodel_strain>  (1) 
0.027508609450073607

>  <r_i_glide_energy>  (1) 
-41.4618428086915

>  <r_i_glide_erotb>  (1) 
1.1941897600298523

>  <r_i_glide_esite>  (1) 
-0.050242674553467981

>  <r_i_glide_evdw>  (1) 
-37.748340237023669

>  <r_i_glide_gscore>  (1) 
-6.2245158255419044

>  <r_i_glide_gscore_strain>  (1) 
0

>  <r_i_glide_hbond>  (1) 
-0.1481125413313982

>  <r_i_glide_ligand_efficiency>  (1) 
-0.27266858684010242

>  <r_i_glide_ligand_efficiency_ln>  (1) 
-1.4663032659458091

>  <r_i_glide_ligand_efficiency_sa>  (1) 
-0.76402810456019099

>  <r_i_glide_lipo>  (1) 
-2.1936766296945081

>  <r_i_glide_metal>  (1) 
-0

>  <r_i_glide_rewards>  (1) 
-2.5822313423910237

>  <r_lp_Energy>  (1) 
34.090119999999999

>  <s_epik_Chemistry_Notes>  (1) 
This compound has an imine and may undergo hydrolysis. This compound has a N-S or N-O group and may undergo hydrolysis at high or low pH.

>  <s_epik_cmdline>  (1) 
J2VwaWtfcHl0aG9uJywgJy1waHQnLCAnMS4wJywgJy1waCcsICc3LjQnLCAnLXRuJywgJzgnLCAnLW1hJywgJzUwMCcsICctaW1hZScsICc8aW5maWxlLm1hZT4nLCAnLW9tYWUnLCAnPG91dGZpbGUubWFlPic=

>  <s_epik_input>  (1) 
W0NIM11DMShbQ0gzXSlbQ0gyXVtDSDJdW05IXVtDQEhdMUMoPU8pL049W0NIXVxbQ0gyXVtDSDJdYzJbY0hdW2NIXWMoW2NIXVtjSF0yKU4oW05IMl0pW09IXQ==

>  <s_glide_docking_method>  (1) 
confgen

>  <s_i_glide_gridfile>  (1) 
gpcr_drd2_6luq_protein_autoprepared_prepared

>  <s_lp_Force_Field>  (1) 
S-OPLS

>  <s_lp_Variant>  (1) 
DiffSBDD_14-2

>  <s_m_source_file>  (1) 
generated_generic_title2_ligand_DiffSBDD_2026-06-23_prepared.sdf

>  <GenAI_Model>  (1) 
DiffSBDD

>  <Protein>  (1) 
generic_title2

$$$$
DiffSBDD_36
     RDKit          3D

  0  0  0  0  0  0  0  0  0  0999 V3000
M  V30 BEGIN CTAB
M  V30 COUNTS 49 51 0 0 1
M  V30 BEGIN ATOM
M  V30 1 C 7.732687 3.986362 -13.073027 0
M  V30 2 C 10.447714 7.501596 -5.982093 0
M  V30 3 N 9.013098 6.308222 -10.373549 0
M  V30 4 O 10.175413 8.791735 -9.585027 0 CHG=-1
M  V30 5 C 11.246787 9.499344 -5.510027 0
M  V30 6 O 7.747429 7.658015 -12.785069 0
M  V30 7 C 8.062460 6.343320 -13.200438 0 CFG=2
M  V30 8 C 11.784788 8.681913 -4.618313 0
M  V30 9 C 10.421692 8.777847 -6.340279 0
M  V30 10 C 9.901919 6.485199 -9.228448 0 CFG=2
M  V30 11 C 12.702870 8.300919 -2.434183 0
M  V30 12 C 7.323568 5.958564 -14.483928 0
M  V30 13 C 11.375412 6.509785 -3.471659 0
M  V30 14 C 9.684881 6.368761 -6.631450 0
M  V30 15 O 9.375409 4.127793 -10.820691 0
M  V30 16 C 9.011157 6.640876 -7.975251 0
M  V30 17 C 7.253746 4.427305 -14.465563 0
M  V30 18 C 6.309642 5.409936 -11.547366 0
M  V30 19 C 10.782399 7.711805 -9.490494 0
M  V30 20 C 8.783267 5.178286 -11.054215 0
M  V30 21 C 12.006912 7.011789 -2.385192 0
M  V30 22 O 12.023279 7.589434 -9.585247 0
M  V30 23 C 11.434869 7.176701 -4.825522 0 CFG=1
M  V30 24 C 7.717200 5.245718 -12.171456 0 CFG=1
M  V30 25 C 12.575401 9.108708 -3.501867 0
M  V30 26 H 7.118313 3.180388 -12.669402 0
M  V30 27 H 8.743178 3.587277 -13.177392 0
M  V30 28 H 8.416220 7.108482 -10.568078 0
M  V30 29 H 11.358814 10.573735 -5.522668 0
M  V30 30 H 8.165049 8.271616 -13.368955 0
M  V30 31 H 9.135329 6.305588 -13.392244 0
M  V30 32 H 9.822581 9.190236 -7.133996 0
M  V30 33 H 10.541490 5.613095 -9.104971 0
M  V30 34 H 13.278811 8.631495 -1.581761 0
M  V30 35 H 6.311714 6.366326 -14.472139 0
M  V30 36 H 7.820145 6.341517 -15.375346 0
M  V30 37 H 10.849493 5.590228 -3.409359 0
M  V30 38 H 8.946094 6.010537 -5.916189 0
M  V30 39 H 10.401949 5.568236 -6.775357 0
M  V30 40 H 8.575410 7.633008 -7.956875 0
M  V30 41 H 8.175414 5.945577 -8.057714 0
M  V30 42 H 6.230992 4.094440 -14.646939 0
M  V30 43 H 7.881736 3.990432 -15.242912 0
M  V30 44 H 5.522322 5.313496 -12.294365 0
M  V30 45 H 6.125676 4.656197 -10.780051 0
M  V30 46 H 6.184054 6.385712 -11.077945 0
M  V30 47 H 11.971333 6.463308 -1.460062 0
M  V30 48 H 12.175410 6.602420 -5.357908 0
M  V30 49 H 13.041337 10.071927 -3.503670 0
M  V30 END ATOM
M  V30 BEGIN BOND
M  V30 1 1 7 6
M  V30 2 2 8 5
M  V30 3 2 9 2
M  V30 4 1 9 5
M  V30 5 1 10 3
M  V30 6 1 12 7
M  V30 7 1 14 2
M  V30 8 1 16 10
M  V30 9 1 16 14
M  V30 10 1 17 1
M  V30 11 1 17 12
M  V30 12 1 19 4
M  V30 13 1 19 10
M  V30 14 1 20 3
M  V30 15 2 20 15
M  V30 16 1 21 11
M  V30 17 2 21 13
M  V30 18 2 22 19
M  V30 19 1 23 2
M  V30 20 1 23 8
M  V30 21 1 23 13
M  V30 22 1 24 1
M  V30 23 1 24 7
M  V30 24 1 24 18 CFG=1
M  V30 25 1 24 20
M  V30 26 1 25 8
M  V30 27 2 25 11
M  V30 28 1 26 1
M  V30 29 1 27 1
M  V30 30 1 28 3
M  V30 31 1 29 5
M  V30 32 1 30 6
M  V30 33 1 7 31 CFG=3
M  V30 34 1 32 9
M  V30 35 1 10 33 CFG=1
M  V30 36 1 34 11
M  V30 37 1 35 12
M  V30 38 1 36 12
M  V30 39 1 37 13
M  V30 40 1 38 14
M  V30 41 1 39 14
M  V30 42 1 40 16
M  V30 43 1 41 16
M  V30 44 1 42 17
M  V30 45 1 43 17
M  V30 46 1 44 18
M  V30 47 1 45 18
M  V30 48 1 46 18
M  V30 49 1 47 21
M  V30 50 1 23 48 CFG=3
M  V30 51 1 49 25
M  V30 END BOND
M  V30 END CTAB
M  END
>  <i_epik_Tot_Q>  (1) 
-1

>  <i_epik_Tot_abs_Q>  (1) 
1

>  <i_i_glide_confnum>  (1) 
32

>  <i_i_glide_lignum>  (1) 
62

>  <i_i_glide_posenum>  (1) 
40

>  <i_i_glide_rotatable_bonds>  (1) 
8

>  <i_lp_mmshare_version>  (1) 
72125

>  <i_m_source_file_index>  (1) 
37

>  <i_f3d_flags>  (1) 
0

>  <num_sample>  (1) 
100

>  <b_lp_Chiralities_Consistent>  (1) 
1

>  <r_epik_Charging_Adjusted_Penalty>  (1) 
6.3624129575878713e-05

>  <r_epik_Ionization_Penalty>  (1) 
6.3751974232529901e-05

>  <r_epik_Ionization_Penalty_Charging>  (1) 
6.3624129575878713e-05

>  <r_epik_Ionization_Penalty_Neutral>  (1) 
1.2784465665118319e-07

>  <r_epik_State_Penalty>  (1) 
-0

>  <r_glide_ring_energy>  (1) 
0

>  <r_i_docking_score>  (1) 
-5.9964281901820833

>  <r_i_glide_ecoul>  (1) 
-1.335806237931269

>  <r_i_glide_eff_state_penalty>  (1) 
-0

>  <r_i_glide_einternal>  (1) 
6.1128881065587617

>  <r_i_glide_emodel>  (1) 
-41.313009325678173

>  <r_i_glide_emodel_strain>  (1) 
0.78716806222629998

>  <r_i_glide_energy>  (1) 
-34.892704533407624

>  <r_i_glide_erotb>  (1) 
0.80862173255752579

>  <r_i_glide_esite>  (1) 
-0.096308296651405029

>  <r_i_glide_evdw>  (1) 
-33.556898295476358

>  <r_i_glide_gscore>  (1) 
-5.9964281901820833

>  <r_i_glide_gscore_strain>  (1) 
0

>  <r_i_glide_hbond>  (1) 
-0.089562752104309265

>  <r_i_glide_ligand_efficiency>  (1) 
-0.23985712760728334

>  <r_i_glide_ligand_efficiency_ln>  (1) 
-1.4213331795252384

>  <r_i_glide_ligand_efficiency_sa>  (1) 
-0.70134649576048347

>  <r_i_glide_lipo>  (1) 
-2.7924649172128309

>  <r_i_glide_metal>  (1) 
-0

>  <r_i_glide_rewards>  (1) 
-1.948498106307555

>  <r_lp_Energy>  (1) 
46.703179999999996

>  <r_lp_tautomer_probability>  (1) 
1

>  <s_epik_cmdline>  (1) 
J2VwaWtfcHl0aG9uJywgJy1waHQnLCAnMS4wJywgJy1waCcsICc3LjQnLCAnLXRuJywgJzgnLCAnLW1hJywgJzUwMCcsICctaW1hZScsICc8aW5maWxlLm1hZT4nLCAnLW9tYWUnLCAnPG91dGZpbGUubWFlPic=

>  <s_epik_input>  (1) 
W09IXVtDQEBIXTFbQ0gyXVtDSDJdW0NIMl1bQ0BAXTEoW0NIM10pQyg9TylbTkhdW0NAQEhdKEMoPU8pW09IXSlbQ0gyXVtDSDJdQyg9W0NIXVtDSF09MilbQ0BIXShDMjMpW0NIXT1bQ0hdW0NIXT1bQ0hdMw==

>  <s_glide_docking_method>  (1) 
confgen

>  <s_i_glide_gridfile>  (1) 
gpcr_drd2_6luq_protein_autoprepared_prepared

>  <s_lp_Force_Field>  (1) 
S-OPLS

>  <s_lp_Variant>  (1) 
DiffSBDD_36-2

>  <s_m_source_file>  (1) 
generated_generic_title2_ligand_DiffSBDD_2026-06-23_prepared.sdf

>  <GenAI_Model>  (1) 
DiffSBDD

>  <Protein>  (1) 
generic_title2

$$$$
DiffSBDD_14
     RDKit          3D

  0  0  0  0  0  0  0  0  0  0999 V3000
M  V30 BEGIN CTAB
M  V30 COUNTS 46 47 0 0 1
M  V30 BEGIN ATOM
M  V30 1 N 9.430820 6.864148 -11.448500 0
M  V30 2 C 8.284265 4.118495 -14.320879 0
M  V30 3 N 9.151118 4.823662 -13.393266 0
M  V30 4 C 11.663640 8.970346 -6.665387 0
M  V30 5 C 8.975396 5.630335 -10.994309 0
M  V30 6 C 6.892254 4.658962 -13.997831 0
M  V30 7 C 9.775002 7.861745 -9.178894 0
M  V30 8 C 6.021528 3.979545 -11.714240 0
M  V30 9 C 11.895423 9.177954 -5.290055 0
M  V30 10 C 11.310654 7.688860 -7.138328 0
M  V30 11 C 11.775407 8.093910 -4.379808 0
M  V30 12 C 11.375440 6.823164 -4.858869 0
M  V30 13 C 11.148037 6.624258 -6.232643 0
M  V30 14 C 9.775369 7.851916 -10.708883 0
M  V30 15 O 8.975690 5.169657 -9.852058 0
M  V30 16 C 6.372896 6.396866 -12.249492 0
M  V30 17 C 11.133629 7.447896 -8.623859 0
M  V30 18 N 11.833317 7.343455 -1.985046 0
M  V30 19 N 12.078936 8.262707 -3.008557 0
M  V30 20 C 8.406048 4.753171 -12.129528 0 CFG=1
M  V30 21 C 6.908542 4.967191 -12.490411 0
M  V30 22 O 12.115548 9.590174 -2.579557 0
M  V30 23 H 8.571419 4.288561 -15.358923 0
M  V30 24 H 8.329104 3.046174 -14.122383 0
M  V30 25 H 10.073359 4.406339 -13.335784 0
M  V30 26 H 11.776831 9.788497 -7.359889 0
M  V30 27 H 6.723953 5.566722 -14.579229 0
M  V30 28 H 6.112110 3.952304 -14.281998 0
M  V30 29 H 8.975453 7.275209 -8.738326 0
M  V30 30 H 9.564389 8.885797 -8.872315 0
M  V30 31 H 6.245607 2.947065 -11.984761 0
M  V30 32 H 6.151422 4.085603 -10.636046 0
M  V30 33 H 4.971146 4.149503 -11.938216 0
M  V30 34 H 12.189984 10.154696 -4.940247 0
M  V30 35 H 11.271375 5.993917 -4.175123 0
M  V30 36 H 10.870348 5.645044 -6.595327 0
M  V30 37 H 10.105294 8.789430 -11.153907 0
M  V30 38 H 7.003171 7.151704 -12.720872 0
M  V30 39 H 5.373079 6.515179 -12.661734 0
M  V30 40 H 6.308654 6.624200 -11.185032 0
M  V30 41 H 11.931759 7.982621 -9.142030 0
M  V30 42 H 11.299392 6.390426 -8.827208 0
M  V30 43 H 11.984741 6.399322 -2.334875 0
M  V30 44 H 12.481140 7.514485 -1.219804 0
M  V30 45 H 8.515108 3.725091 -11.778599 0
M  V30 46 H 13.010748 9.772635 -2.322856 0
M  V30 END ATOM
M  V30 BEGIN BOND
M  V30 1 1 3 2
M  V30 2 1 5 1
M  V30 3 1 6 2
M  V30 4 2 9 4
M  V30 5 1 10 4
M  V30 6 1 11 9
M  V30 7 2 12 11
M  V30 8 2 13 10
M  V30 9 1 13 12
M  V30 10 2 14 1
M  V30 11 1 14 7
M  V30 12 2 15 5
M  V30 13 1 17 7
M  V30 14 1 17 10
M  V30 15 1 19 11
M  V30 16 1 19 18
M  V30 17 1 20 3
M  V30 18 1 20 5
M  V30 19 1 21 6
M  V30 20 1 21 8
M  V30 21 1 21 16
M  V30 22 1 21 20
M  V30 23 1 22 19
M  V30 24 1 23 2
M  V30 25 1 24 2
M  V30 26 1 25 3
M  V30 27 1 26 4
M  V30 28 1 27 6
M  V30 29 1 28 6
M  V30 30 1 29 7
M  V30 31 1 30 7
M  V30 32 1 31 8
M  V30 33 1 32 8
M  V30 34 1 33 8
M  V30 35 1 34 9
M  V30 36 1 35 12
M  V30 37 1 36 13
M  V30 38 1 37 14
M  V30 39 1 38 16
M  V30 40 1 39 16
M  V30 41 1 40 16
M  V30 42 1 41 17
M  V30 43 1 42 17
M  V30 44 1 43 18
M  V30 45 1 44 18
M  V30 46 1 20 45 CFG=1
M  V30 47 1 46 22
M  V30 END BOND
M  V30 END CTAB
M  END
>  <i_epik_Tot_Q>  (1) 
0

>  <i_epik_Tot_abs_Q>  (1) 
0

>  <i_i_glide_confnum>  (1) 
18

>  <i_i_glide_lignum>  (1) 
27

>  <i_i_glide_posenum>  (1) 
393

>  <i_i_glide_rotatable_bonds>  (1) 
7

>  <i_lp_mmshare_version>  (1) 
72125

>  <i_m_source_file_index>  (1) 
15

>  <i_f3d_flags>  (1) 
0

>  <num_sample>  (1) 
100

>  <b_lp_Chiralities_Consistent>  (1) 
1

>  <r_epik_Charging_Adjusted_Penalty>  (1) 
0.22580691505965048

>  <r_epik_Ionization_Penalty>  (1) 
0.22909364713476901

>  <r_epik_Ionization_Penalty_Charging>  (1) 
0

>  <r_epik_Ionization_Penalty_Neutral>  (1) 
0.22909364713476901

>  <r_epik_State_Penalty>  (1) 
0.22580691505965048

>  <r_glide_ring_energy>  (1) 
0

>  <r_i_docking_score>  (1) 
-5.9954106586945057

>  <r_i_glide_ecoul>  (1) 
-3.860744626093549

>  <r_i_glide_eff_state_penalty>  (1) 
0.22580691505965048

>  <r_i_glide_einternal>  (1) 
2.6602110620086288

>  <r_i_glide_emodel>  (1) 
-52.694626399788035

>  <r_i_glide_emodel_strain>  (1) 
0.031004637076243569

>  <r_i_glide_energy>  (1) 
-38.612896228144891

>  <r_i_glide_erotb>  (1) 
1.1941897600298523

>  <r_i_glide_esite>  (1) 
-0.10285864634267901

>  <r_i_glide_evdw>  (1) 
-34.752151602051342

>  <r_i_glide_gscore>  (1) 
-6.2212175737541564

>  <r_i_glide_gscore_strain>  (1) 
0

>  <r_i_glide_hbond>  (1) 
-0.47463177949622909

>  <r_i_glide_ligand_efficiency>  (1) 
-0.27251866630429572

>  <r_i_glide_ligand_efficiency_ln>  (1) 
-1.4654970529022262

>  <r_i_glide_ligand_efficiency_sa>  (1) 
-0.7636080213223877

>  <r_i_glide_lipo>  (1) 
-2.0340784376244323

>  <r_i_glide_metal>  (1) 
-0

>  <r_i_glide_rewards>  (1) 
-2.4871191963040693

>  <r_lp_Energy>  (1) 
34.090119999999999

>  <s_epik_Chemistry_Notes>  (1) 
This compound has an imine and may undergo hydrolysis. This compound has a N-S or N-O group and may undergo hydrolysis at high or low pH.

>  <s_epik_cmdline>  (1) 
J2VwaWtfcHl0aG9uJywgJy1waHQnLCAnMS4wJywgJy1waCcsICc3LjQnLCAnLXRuJywgJzgnLCAnLW1hJywgJzUwMCcsICctaW1hZScsICc8aW5maWxlLm1hZT4nLCAnLW9tYWUnLCAnPG91dGZpbGUubWFlPic=

>  <s_epik_input>  (1) 
W0NIM11DMShbQ0gzXSlbQ0gyXVtDSDJdW05IXVtDQEhdMUMoPU8pL049W0NIXVxbQ0gyXVtDSDJdYzJbY0hdW2NIXWMoW2NIXVtjSF0yKU4oW05IMl0pW09IXQ==

>  <s_glide_docking_method>  (1) 
confgen

>  <s_i_glide_gridfile>  (1) 
gpcr_drd2_6luq_protein_autoprepared_prepared

>  <s_lp_Force_Field>  (1) 
S-OPLS

>  <s_lp_Variant>  (1) 
DiffSBDD_14-2

>  <s_m_source_file>  (1) 
generated_generic_title2_ligand_DiffSBDD_2026-06-23_prepared.sdf

>  <GenAI_Model>  (1) 
DiffSBDD

>  <Protein>  (1) 
generic_title2

$$$$
DiffSBDD_1
     RDKit          3D

  0  0  0  0  0  0  0  0  0  0999 V3000
M  V30 BEGIN CTAB
M  V30 COUNTS 73 75 0 0 1
M  V30 BEGIN ATOM
M  V30 1 F 10.702957 10.802192 -4.786437 0
M  V30 2 C 5.524408 6.806081 -15.214030 0
M  V30 3 C 12.531992 9.057426 -7.563640 0
M  V30 4 C 11.190359 9.701169 -5.357097 0
M  V30 5 C 8.400814 5.805733 -11.833000 0 CFG=1
M  V30 6 C 10.670967 6.156294 -5.882607 0
M  V30 7 F 13.557004 9.590472 -5.434576 0
M  V30 8 C 7.316325 4.671893 -16.985485 0
M  V30 9 C 10.944053 7.172034 -6.964384 0 CFG=1
M  V30 10 C 12.212152 7.539974 -7.662159 0
M  V30 11 C 7.570544 6.953313 -12.378578 0
M  V30 12 C 9.669762 7.419524 -7.778196 0 CFG=1
M  V30 13 C 11.923729 6.775438 -12.490851 0
M  V30 14 O 5.377354 7.589935 -12.486332 0
M  V30 15 C 9.901008 7.166751 -10.234684 0
M  V30 16 C 9.814134 6.191660 -11.419619 0 CFG=2
M  V30 17 C 6.062925 6.029972 -14.245549 0
M  V30 18 C 6.584293 4.627590 -14.526136 0
M  V30 19 N 10.575309 8.608242 -5.185013 0
M  V30 20 C 12.582696 7.099070 -13.845035 0
M  V30 21 O 13.285381 7.985622 -17.938040 0
M  V30 22 O 9.365646 8.789696 -7.918077 0
M  V30 23 C 11.939961 6.391309 -15.028421 0
M  V30 24 C 12.479279 9.814599 -6.184852 0 CFG=1
M  V30 25 C 13.562633 7.299129 -16.736943 0
M  V30 26 C 6.171365 6.491626 -12.789302 0 CFG=1
M  V30 27 C 12.371065 6.482320 -16.297832 0
M  V30 28 O 10.209709 8.344173 -10.415028 0
M  V30 29 C 11.264545 7.436104 -5.504196 0 CFG=1
M  V30 30 O 7.728077 5.180497 -10.746083 0
M  V30 31 C 6.650721 5.990472 -17.410717 0
M  V30 32 N 9.631285 6.649900 -9.023029 0
M  V30 33 C 7.759657 4.615324 -15.515949 0
M  V30 34 C 5.359863 6.381934 -16.667176 0
M  V30 35 O 10.503250 6.702714 -12.566010 0
M  V30 36 H 5.165383 7.795063 -14.965026 0
M  V30 37 H 13.538265 9.183844 -7.963279 0
M  V30 38 H 11.869031 9.580983 -8.258539 0
M  V30 39 H 8.528454 5.056636 -12.608483 0
M  V30 40 H 9.663928 5.990915 -5.507594 0
M  V30 41 H 11.377473 5.333144 -5.855874 0
M  V30 42 H 6.658248 3.834085 -17.206663 0
M  V30 43 H 8.194749 4.519326 -17.614504 0
M  V30 44 H 12.974299 6.932383 -7.191098 0
M  V30 45 H 12.171837 7.242064 -8.703910 0
M  V30 46 H 7.523837 7.721390 -11.606410 0
M  V30 47 H 8.080123 7.428609 -13.214584 0
M  V30 48 H 8.808992 7.041348 -7.227148 0
M  V30 49 H 12.309490 5.823230 -12.160214 0
M  V30 50 H 12.232789 7.505748 -11.744407 0
M  V30 51 H 5.793107 8.072158 -11.779634 0
M  V30 52 H 10.176666 5.213390 -11.130737 0
M  V30 53 H 6.879078 4.147570 -13.592968 0
M  V30 54 H 5.778277 3.995599 -14.872894 0
M  V30 55 H 13.628889 6.806128 -13.819727 0
M  V30 56 H 12.578837 8.172736 -13.989181 0
M  V30 57 H 12.720242 8.727080 -17.756180 0
M  V30 58 H 8.926959 8.884644 -8.756471 0
M  V30 59 H 11.080504 5.781295 -14.811929 0
M  V30 60 H 12.571654 10.881824 -6.383422 0
M  V30 61 H 14.410953 6.634201 -16.915172 0
M  V30 62 H 13.841486 8.024975 -15.977929 0
M  V30 63 H 5.784578 5.700662 -12.144034 0
M  V30 64 H 11.848736 5.942460 -17.073434 0
M  V30 65 H 12.175105 7.302059 -4.944132 0
M  V30 66 H 7.371021 5.854850 -10.175563 0
M  V30 67 H 6.423617 5.919581 -18.476969 0
M  V30 68 H 7.369144 6.792361 -17.330859 0
M  V30 69 H 9.380375 5.671334 -8.959317 0
M  V30 70 H 8.323524 3.694445 -15.368669 0
M  V30 71 H 8.454268 5.426801 -15.294126 0
M  V30 72 H 4.616528 5.590801 -16.729633 0
M  V30 73 H 4.914459 7.226625 -17.191992 0
M  V30 END ATOM
M  V30 BEGIN BOND
M  V30 1 1 4 1
M  V30 2 1 9 6 CFG=1
M  V30 3 1 10 3
M  V30 4 1 10 9
M  V30 5 1 11 5
M  V30 6 1 12 9
M  V30 7 1 16 5
M  V30 8 1 16 15
M  V30 9 2 17 2
M  V30 10 1 18 17
M  V30 11 2 19 4
M  V30 12 1 20 13
M  V30 13 1 22 12
M  V30 14 1 23 20
M  V30 15 1 24 3
M  V30 16 1 24 4
M  V30 17 1 24 7
M  V30 18 1 25 21
M  V30 19 1 26 11
M  V30 20 1 26 14
M  V30 21 1 26 17
M  V30 22 2 27 23
M  V30 23 1 27 25
M  V30 24 2 28 15
M  V30 25 1 29 6
M  V30 26 1 29 9
M  V30 27 1 29 19
M  V30 28 1 30 5
M  V30 29 1 31 8
M  V30 30 1 32 12
M  V30 31 1 32 15
M  V30 32 1 33 8
M  V30 33 1 33 18
M  V30 34 1 34 2
M  V30 35 1 34 31
M  V30 36 1 35 13
M  V30 37 1 35 16
M  V30 38 1 36 2
M  V30 39 1 37 3
M  V30 40 1 38 3
M  V30 41 1 5 39 CFG=3
M  V30 42 1 40 6
M  V30 43 1 41 6
M  V30 44 1 42 8
M  V30 45 1 43 8
M  V30 46 1 44 10
M  V30 47 1 45 10
M  V30 48 1 46 11
M  V30 49 1 47 11
M  V30 50 1 12 48 CFG=1
M  V30 51 1 49 13
M  V30 52 1 50 13
M  V30 53 1 51 14
M  V30 54 1 16 52 CFG=1
M  V30 55 1 53 18
M  V30 56 1 54 18
M  V30 57 1 55 20
M  V30 58 1 56 20
M  V30 59 1 57 21
M  V30 60 1 58 22
M  V30 61 1 59 23
M  V30 62 1 24 60 CFG=3
M  V30 63 1 61 25
M  V30 64 1 62 25
M  V30 65 1 26 63 CFG=1
M  V30 66 1 64 27
M  V30 67 1 29 65 CFG=3
M  V30 68 1 66 30
M  V30 69 1 67 31
M  V30 70 1 68 31
M  V30 71 1 69 32
M  V30 72 1 70 33
M  V30 73 1 71 33
M  V30 74 1 72 34
M  V30 75 1 73 34
M  V30 END BOND
M  V30 END CTAB
M  END
>  <i_epik_Tot_Q>  (1) 
0

>  <i_epik_Tot_abs_Q>  (1) 
0

>  <i_i_glide_confnum>  (1) 
1248

>  <i_i_glide_lignum>  (1) 
2

>  <i_i_glide_posenum>  (1) 
293

>  <i_i_glide_rotatable_bonds>  (1) 
17

>  <i_lp_mmshare_version>  (1) 
72125

>  <i_m_source_file_index>  (1) 
2

>  <i_f3d_flags>  (1) 
0

>  <num_sample>  (1) 
100

>  <b_lp_Chiralities_Consistent>  (1) 
1

>  <r_epik_Charging_Adjusted_Penalty>  (1) 
0

>  <r_epik_Ionization_Penalty>  (1) 
3.3646854675809213e-05

>  <r_epik_Ionization_Penalty_Charging>  (1) 
0

>  <r_epik_Ionization_Penalty_Neutral>  (1) 
3.3646854675809213e-05

>  <r_epik_State_Penalty>  (1) 
-0

>  <r_glide_ring_energy>  (1) 
0.00078572505473429135

>  <r_i_docking_score>  (1) 
-5.9864568945455181

>  <r_i_glide_ecoul>  (1) 
-8.2246221522685694

>  <r_i_glide_eff_state_penalty>  (1) 
-0

>  <r_i_glide_einternal>  (1) 
20.754734976309869

>  <r_i_glide_emodel>  (1) 
-24.002846301849342

>  <r_i_glide_emodel_strain>  (1) 
2.2088063296159106

>  <r_i_glide_energy>  (1) 
-23.734011602715231

>  <r_i_glide_erotb>  (1) 
0.89639897310018468

>  <r_i_glide_esite>  (1) 
-0.2619220972643802

>  <r_i_glide_evdw>  (1) 
-15.509389450446662

>  <r_i_glide_gscore>  (1) 
-5.9864568945455181

>  <r_i_glide_gscore_strain>  (1) 
0

>  <r_i_glide_hbond>  (1) 
-0.43554580951488781

>  <r_i_glide_ligand_efficiency>  (1) 
-0.17104162555844338

>  <r_i_glide_ligand_efficiency_ln>  (1) 
-1.3141601506050871

>  <r_i_glide_ligand_efficiency_sa>  (1) 
-0.55948849900411579

>  <r_i_glide_lipo>  (1) 
-2.5816277377383026

>  <r_i_glide_metal>  (1) 
-0

>  <r_i_glide_rewards>  (1) 
-1.5945974277655151

>  <r_lp_Energy>  (1) 
34.404662999999999

>  <r_lp_tautomer_probability>  (1) 
1

>  <s_epik_Chemistry_Notes>  (1) 
This compound has an imine and may undergo hydrolysis. This compound contains an acetal/aminal-like group ( X-CH(R)-Y where X, Y are N, S, or O) that may be acid/base labile, releasing an aldehyde.

>  <s_epik_cmdline>  (1) 
J2VwaWtfcHl0aG9uJywgJy1waHQnLCAnMS4wJywgJy1waCcsICc3LjQnLCAnLXRuJywgJzgnLCAnLW1hJywgJzUwMCcsICctaW1hZScsICc8aW5maWxlLm1hZT4nLCAnLW9tYWUnLCAnPG91dGZpbGUubWFlPic=

>  <s_epik_input>  (1) 
W0NIMl0xW0NIMl1bQ0BIXShGKUMoRik9TltDQEBIXShbQ0gyXTIpQzEyW0NAQEhdKFtPSF0pW05IXUMoPU8pW0NASF0oT1tDSDJdW0NIMl0vW0NIXT1bQ0hdXFtDSDJdW09IXSlbQ0BASF0oW09IXSlbQ0gyXVtDQEBIXShbT0hdKUMzPVtDSF1bQ0gyXVtDSDJdW0NIMl1bQ0gyXVtDSDJdMw==

>  <s_glide_docking_method>  (1) 
confgen

>  <s_i_glide_gridfile>  (1) 
gpcr_drd2_6luq_protein_autoprepared_prepared

>  <s_lp_Force_Field>  (1) 
S-OPLS

>  <s_lp_Variant>  (1) 
DiffSBDD_1-1

>  <s_m_source_file>  (1) 
generated_generic_title2_ligand_DiffSBDD_2026-06-23_prepared.sdf

>  <GenAI_Model>  (1) 
DiffSBDD

>  <Protein>  (1) 
generic_title2

$$$$
DiffSBDD_75
     RDKit          3D

  0  0  0  0  0  0  0  0  0  0999 V3000
M  V30 BEGIN CTAB
M  V30 COUNTS 71 75 0 0 1
M  V30 BEGIN ATOM
M  V30 1 C 6.383711 7.005511 -14.421134 0
M  V30 2 C 8.885810 7.699224 -11.504358 0
M  V30 3 C 9.775722 6.276192 -9.655943 0 CFG=1
M  V30 4 C 9.812463 6.709920 -5.847479 0
M  V30 5 C 9.117876 6.431932 -8.288529 0
M  V30 6 C 4.263404 7.556622 -18.442805 0
M  V30 7 F 4.794632 4.860277 -21.706719 0
M  V30 8 C 11.312396 7.507453 -7.835448 0 CFG=1
M  V30 9 C 7.021224 4.744614 -20.951305 0
M  V30 10 F 6.259226 6.133819 -22.638820 0
M  V30 11 C 7.660169 7.897897 -12.402329 0
M  V30 12 C 7.388159 5.444825 -12.621278 0
M  V30 13 F 7.604833 3.006029 -19.522086 0
M  V30 14 C 5.480609 6.795876 -20.564977 0
M  V30 15 N 8.880762 6.397116 -10.823087 0
M  V30 16 C 6.710837 3.986319 -19.649921 0 CFG=1
M  V30 17 C 5.948988 5.923246 -18.203221 0
M  V30 18 C 6.408200 6.056152 -15.636043 0
M  V30 19 C 4.580383 7.351902 -16.950150 0
M  V30 20 N 9.774579 4.771702 -12.385001 0 CHG=1
M  V30 21 C 7.514678 6.752791 -13.407801 0 CFG=1
M  V30 22 S 11.153150 7.481330 -9.647264 0
M  V30 23 C 11.881970 9.319264 -6.060722 0
M  V30 24 C 11.136369 8.955219 -7.353307 0
M  V30 25 C 4.909766 6.380156 -19.197153 0 CFG=1
M  V30 26 C 9.127013 3.841876 -11.472861 0
M  V30 27 C 6.747859 4.857437 -18.408494 0
M  V30 28 C 10.281863 6.487467 -7.289317 0 CFG=1
M  V30 29 C 8.586587 5.237148 -11.698168 0 CFG=2
M  V30 30 C 5.867498 5.618551 -21.473560 0
M  V30 31 C 5.991066 6.760467 -16.945403 0 CFG=2
M  V30 32 H 6.503463 8.023358 -14.789308 0
M  V30 33 H 5.408064 6.979098 -13.933398 0
M  V30 34 H 9.794357 7.799060 -12.099252 0
M  V30 35 H 8.890130 8.502090 -10.766163 0
M  V30 36 H 10.175411 5.276154 -9.621214 0
M  V30 37 H 9.375413 7.696559 -5.704656 0
M  V30 38 H 9.040728 5.990227 -5.585024 0
M  V30 39 H 10.630536 6.587215 -5.138147 0
M  V30 40 H 8.575414 7.368043 -8.215193 0
M  V30 41 H 8.419542 5.621946 -8.074518 0
M  V30 42 H 3.195313 7.660675 -18.616775 0
M  V30 43 H 4.735248 8.476143 -18.784991 0
M  V30 44 H 12.323891 7.190216 -7.585024 0
M  V30 45 H 7.260481 4.013426 -21.724823 0
M  V30 46 H 7.922095 5.346515 -20.823134 0
M  V30 47 H 7.775410 8.844942 -12.926550 0
M  V30 48 H 6.757490 7.984587 -11.795232 0
M  V30 49 H 6.482040 5.460875 -12.013228 0
M  V30 50 H 7.289549 4.596210 -13.299687 0
M  V30 51 H 4.727671 7.388215 -21.087165 0
M  V30 52 H 6.337133 7.457674 -20.425815 0
M  V30 53 H 5.742077 3.489510 -19.714670 0
M  V30 54 H 5.775417 5.190219 -15.441326 0
M  V30 55 H 7.421052 5.674769 -15.760249 0
M  V30 56 H 3.874755 6.637586 -16.524278 0
M  V30 57 H 4.507996 8.277016 -16.377343 0
M  V30 58 H 9.669492 4.539886 -13.361958 0
M  V30 59 H 8.438543 6.696942 -13.975567 0
M  V30 60 H 11.690773 10.358185 -5.790836 0
M  V30 61 H 11.581511 8.703031 -5.215503 0
M  V30 62 H 12.958508 9.210301 -6.190876 0
M  V30 63 H 11.533284 9.600072 -8.133705 0
M  V30 64 H 10.075273 9.190227 -7.268371 0
M  V30 65 H 4.175409 5.590227 -19.324802 0
M  V30 66 H 9.775410 3.590227 -10.642909 0
M  V30 67 H 8.726832 3.006792 -12.044127 0
M  V30 68 H 7.466235 4.577769 -17.654480 0
M  V30 69 H 10.764831 5.510725 -7.313986 0
M  V30 70 H 6.679751 7.577058 -17.149317 0
M  V30 71 H 10.656960 5.138342 -12.062432 0
M  V30 END ATOM
M  V30 BEGIN BOND
M  V30 1 1 5 3
M  V30 2 1 11 2
M  V30 3 1 15 2
M  V30 4 1 15 3
M  V30 5 1 16 9
M  V30 6 1 16 13
M  V30 7 1 18 1
M  V30 8 1 19 6
M  V30 9 1 21 1
M  V30 10 1 21 11
M  V30 11 1 21 12
M  V30 12 1 22 3
M  V30 13 1 22 8
M  V30 14 1 24 8
M  V30 15 1 24 23
M  V30 16 1 25 6
M  V30 17 1 25 14
M  V30 18 1 25 17
M  V30 19 1 26 20
M  V30 20 1 27 16
M  V30 21 2 27 17
M  V30 22 1 28 4
M  V30 23 1 28 5
M  V30 24 1 28 8
M  V30 25 1 29 12
M  V30 26 1 29 15 CFG=1
M  V30 27 1 29 20
M  V30 28 1 29 26
M  V30 29 1 30 7
M  V30 30 1 30 9
M  V30 31 1 30 10
M  V30 32 1 30 14
M  V30 33 1 31 17
M  V30 34 1 31 18
M  V30 35 1 31 19
M  V30 36 1 32 1
M  V30 37 1 33 1
M  V30 38 1 34 2
M  V30 39 1 35 2
M  V30 40 1 3 36 CFG=1
M  V30 41 1 37 4
M  V30 42 1 38 4
M  V30 43 1 39 4
M  V30 44 1 40 5
M  V30 45 1 41 5
M  V30 46 1 42 6
M  V30 47 1 43 6
M  V30 48 1 8 44 CFG=3
M  V30 49 1 45 9
M  V30 50 1 46 9
M  V30 51 1 47 11
M  V30 52 1 48 11
M  V30 53 1 49 12
M  V30 54 1 50 12
M  V30 55 1 51 14
M  V30 56 1 52 14
M  V30 57 1 16 53 CFG=3
M  V30 58 1 54 18
M  V30 59 1 55 18
M  V30 60 1 56 19
M  V30 61 1 57 19
M  V30 62 1 58 20
M  V30 63 1 21 59 CFG=3
M  V30 64 1 60 23
M  V30 65 1 61 23
M  V30 66 1 62 23
M  V30 67 1 63 24
M  V30 68 1 64 24
M  V30 69 1 25 65 CFG=3
M  V30 70 1 66 26
M  V30 71 1 67 26
M  V30 72 1 68 27
M  V30 73 1 28 69 CFG=1
M  V30 74 1 31 70 CFG=3
M  V30 75 1 71 20
M  V30 END BOND
M  V30 END CTAB
M  END
>  <i_epik_Tot_Q>  (1) 
1

>  <i_epik_Tot_abs_Q>  (1) 
1

>  <i_i_glide_confnum>  (1) 
79

>  <i_i_glide_lignum>  (1) 
123

>  <i_i_glide_posenum>  (1) 
221

>  <i_i_glide_rotatable_bonds>  (1) 
5

>  <i_lp_mmshare_version>  (1) 
72125

>  <i_m_source_file_index>  (1) 
76

>  <i_f3d_flags>  (1) 
0

>  <num_sample>  (1) 
100

>  <b_lp_Chiralities_Consistent>  (1) 
1

>  <r_epik_Charging_Adjusted_Penalty>  (1) 
0.021643694203304514

>  <r_epik_Ionization_Penalty>  (1) 
0.021651518670722316

>  <r_epik_Ionization_Penalty_Charging>  (1) 
0.021643694203304514

>  <r_epik_Ionization_Penalty_Neutral>  (1) 
7.8244674178018311e-06

>  <r_epik_State_Penalty>  (1) 
-0

>  <r_glide_ring_energy>  (1) 
0

>  <r_i_docking_score>  (1) 
-5.9832212640151203

>  <r_i_glide_ecoul>  (1) 
-3.2628294700781004

>  <r_i_glide_eff_state_penalty>  (1) 
-0

>  <r_i_glide_einternal>  (1) 
10.523009380630704

>  <r_i_glide_emodel>  (1) 
-31.504447515170781

>  <r_i_glide_emodel_strain>  (1) 
3.6483433016902609

>  <r_i_glide_energy>  (1) 
-33.028734577525313

>  <r_i_glide_erotb>  (1) 
0.38396893463604614

>  <r_i_glide_esite>  (1) 
0

>  <r_i_glide_evdw>  (1) 
-29.765905107447214

>  <r_i_glide_gscore>  (1) 
-5.9832212640151203

>  <r_i_glide_gscore_strain>  (1) 
0

>  <r_i_glide_hbond>  (1) 
0

>  <r_i_glide_ligand_efficiency>  (1) 
-0.19300713754887486

>  <r_i_glide_ligand_efficiency_ln>  (1) 
-1.3493997587460029

>  <r_i_glide_ligand_efficiency_sa>  (1) 
-0.60630888766947988

>  <r_i_glide_lipo>  (1) 
-3.0209781948726282

>  <r_i_glide_metal>  (1) 
-0

>  <r_i_glide_rewards>  (1) 
-1.368492327894463

>  <r_lp_Energy>  (1) 
29.145934999999998

>  <r_lp_tautomer_probability>  (1) 
1

>  <s_epik_Chemistry_Notes>  (1) 
This compound contains an acetal/aminal-like group ( X-CH(R)-Y where X, Y are N, S, or O) that may be acid/base labile, releasing an aldehyde.

>  <s_epik_cmdline>  (1) 
J2VwaWtfcHl0aG9uJywgJy1waHQnLCAnMS4wJywgJy1waCcsICc3LjQnLCAnLXRuJywgJzgnLCAnLW1hJywgJzUwMCcsICctaW1hZScsICc8aW5maWxlLm1hZT4nLCAnLW9tYWUnLCAnPG91dGZpbGUubWFlPic=

>  <s_epik_input>  (1) 
W0NIM11bQ0gyXVtDQEhdKFMxKVtDQEBIXShbQ0gzXSlbQ0gyXVtDQEhdMU4yW0NIMl1bQ0gyXVtDQEBIXShbQ0gyXVtDQEBdMjNbTkhdW0NIMl0zKVtDSDJdW0NIMl1bQ0BASF00W0NIMl1bQ0gyXVtDQEhdKEM0PTUpW0NIMl1DKEYpKEYpW0NIMl1bQ0BASF0oRilbQ0hdNQ==

>  <s_glide_docking_method>  (1) 
confgen

>  <s_i_glide_gridfile>  (1) 
gpcr_drd2_6luq_protein_autoprepared_prepared

>  <s_lp_Force_Field>  (1) 
S-OPLS

>  <s_lp_Variant>  (1) 
DiffSBDD_75-1

>  <s_m_source_file>  (1) 
generated_generic_title2_ligand_DiffSBDD_2026-06-23_prepared.sdf

>  <GenAI_Model>  (1) 
DiffSBDD

>  <Protein>  (1) 
generic_title2

$$$$
DiffSBDD_9
     RDKit          3D

  0  0  0  0  0  0  0  0  0  0999 V3000
M  V30 BEGIN CTAB
M  V30 COUNTS 65 70 0 0 1
M  V30 BEGIN ATOM
M  V30 1 C 7.316298 3.910248 -19.017482 0
M  V30 2 O 4.631059 6.316870 -19.733818 0
M  V30 3 C 7.627404 4.237937 -17.686223 0
M  V30 4 C 10.809181 7.719897 -5.385428 0 CFG=2
M  V30 5 C 12.030862 7.319677 -3.144544 0
M  V30 6 C 10.175413 6.029965 -12.534072 0
M  V30 7 C 6.102969 5.724418 -14.689020 0 CFG=2
M  V30 8 C 5.865701 7.190611 -14.470775 0
M  V30 9 C 12.131830 9.623683 -2.488716 0
M  V30 10 O 10.534174 7.310439 -9.973205 0
M  V30 11 C 6.310420 4.612282 -19.701057 0
M  V30 12 C 10.579031 8.666947 -6.554138 0
M  V30 13 C 9.717651 5.111956 -13.728246 0
M  V30 14 O 11.342476 6.390253 -12.385022 0
M  V30 15 C 11.773856 8.276565 -4.326248 0 CFG=2
M  V30 16 N 11.379451 9.571651 -3.744873 0 CHG=1
M  V30 17 N 8.255963 5.174318 -13.374988 0
M  V30 18 C 9.216298 7.240700 -10.477859 0
M  V30 19 C 12.068913 8.215177 -1.909074 0
M  V30 20 C 8.009501 5.881282 -12.238113 0
M  V30 21 C 5.908371 5.987001 -17.715491 0
M  V30 22 C 5.720988 7.924891 -15.829814 0
M  V30 23 O 10.553358 8.351063 -8.902256 0
M  V30 24 C 9.072636 6.385342 -11.712403 0
M  V30 25 C 11.202647 6.564024 -7.361097 0
M  V30 26 C 5.106065 7.117955 -17.012303 0
M  V30 27 C 7.270375 4.798645 -14.370904 0 CFG=2
M  V30 28 C 7.275592 5.612984 -15.624883 0 CFG=1
M  V30 29 C 10.257915 7.717389 -7.674016 0 CFG=1
M  V30 30 C 6.932883 5.271189 -17.022302 0
M  V30 31 O 11.375394 6.549142 -5.952251 0
M  V30 32 C 5.607189 5.646598 -19.058180 0
M  V30 33 H 7.852715 3.115922 -19.516073 0
M  V30 34 H 4.246793 7.016964 -19.230235 0
M  V30 35 H 8.403591 3.693517 -17.168277 0
M  V30 36 H 9.852559 7.420351 -4.964709 0
M  V30 37 H 11.254948 6.558586 -3.048212 0
M  V30 38 H 12.975488 6.793727 -3.265542 0
M  V30 39 H 5.196232 5.190218 -14.946469 0
M  V30 40 H 6.693630 7.613681 -13.904233 0
M  V30 41 H 4.975412 7.318034 -13.858196 0
M  V30 42 H 11.775508 10.390205 -1.808694 0
M  V30 43 H 13.154680 9.842833 -2.785022 0
M  V30 44 H 6.075081 4.355074 -20.722955 0
M  V30 45 H 11.485962 9.227939 -6.787186 0
M  V30 46 H 9.775396 9.369370 -6.372173 0
M  V30 47 H 10.101847 4.103959 -13.589314 0
M  V30 48 H 9.967507 5.524379 -14.705035 0
M  V30 49 H 12.719417 8.526065 -4.784997 0
M  V30 50 H 11.606965 10.343827 -4.355270 0
M  V30 51 H 8.860097 8.245079 -10.711213 0
M  V30 52 H 8.575622 6.790103 -9.722873 0
M  V30 53 H 11.155845 8.076193 -1.330192 0
M  V30 54 H 12.913539 7.997617 -1.253990 0
M  V30 55 H 6.985381 5.970797 -11.900519 0
M  V30 56 H 6.676285 8.341026 -16.139000 0
M  V30 57 H 5.084500 8.790411 -15.654569 0
M  V30 58 H 10.856641 5.605326 -7.748915 0
M  V30 59 H 12.175293 6.790281 -7.787510 0
M  V30 60 H 4.858984 7.863128 -17.767875 0
M  V30 61 H 4.149656 6.697000 -16.699374 0
M  V30 62 H 7.139718 3.721407 -14.455566 0
M  V30 63 H 8.032000 6.390224 -15.632682 0
M  V30 64 H 9.215293 7.399326 -7.616585 0
M  V30 65 H 10.393065 9.573476 -3.537382 0
M  V30 END ATOM
M  V30 BEGIN BOND
M  V30 1 1 3 1
M  V30 2 1 8 7
M  V30 3 2 11 1
M  V30 4 1 12 4
M  V30 5 1 13 6
M  V30 6 2 14 6
M  V30 7 1 15 4
M  V30 8 1 15 5
M  V30 9 1 16 9
M  V30 10 1 16 15
M  V30 11 1 17 13
M  V30 12 1 18 10
M  V30 13 1 19 5
M  V30 14 1 19 9
M  V30 15 1 20 17
M  V30 16 1 22 8
M  V30 17 1 23 10
M  V30 18 1 24 6
M  V30 19 1 24 18
M  V30 20 2 24 20
M  V30 21 1 26 21
M  V30 22 1 26 22
M  V30 23 1 27 7
M  V30 24 1 27 17
M  V30 25 1 28 7
M  V30 26 1 28 27
M  V30 27 1 29 12
M  V30 28 1 29 23
M  V30 29 1 29 25
M  V30 30 2 30 3
M  V30 31 1 30 21
M  V30 32 1 30 28
M  V30 33 1 31 4
M  V30 34 1 31 25
M  V30 35 1 32 2
M  V30 36 1 32 11
M  V30 37 2 32 21
M  V30 38 1 33 1
M  V30 39 1 34 2
M  V30 40 1 35 3
M  V30 41 1 4 36 CFG=1
M  V30 42 1 37 5
M  V30 43 1 38 5
M  V30 44 1 7 39 CFG=3
M  V30 45 1 40 8
M  V30 46 1 41 8
M  V30 47 1 42 9
M  V30 48 1 43 9
M  V30 49 1 44 11
M  V30 50 1 45 12
M  V30 51 1 46 12
M  V30 52 1 47 13
M  V30 53 1 48 13
M  V30 54 1 15 49 CFG=3
M  V30 55 1 50 16
M  V30 56 1 51 18
M  V30 57 1 52 18
M  V30 58 1 53 19
M  V30 59 1 54 19
M  V30 60 1 55 20
M  V30 61 1 56 22
M  V30 62 1 57 22
M  V30 63 1 58 25
M  V30 64 1 59 25
M  V30 65 1 60 26
M  V30 66 1 61 26
M  V30 67 1 27 62 CFG=3
M  V30 68 1 28 63 CFG=3
M  V30 69 1 29 64 CFG=3
M  V30 70 1 65 16
M  V30 END BOND
M  V30 END CTAB
M  END
>  <i_epik_Tot_Q>  (1) 
1

>  <i_epik_Tot_abs_Q>  (1) 
1

>  <i_i_glide_confnum>  (1) 
446

>  <i_i_glide_lignum>  (1) 
16

>  <i_i_glide_posenum>  (1) 
392

>  <i_i_glide_rotatable_bonds>  (1) 
7

>  <i_lp_mmshare_version>  (1) 
72125

>  <i_m_source_file_index>  (1) 
10

>  <i_f3d_flags>  (1) 
0

>  <num_sample>  (1) 
100

>  <b_lp_Chiralities_Consistent>  (1) 
1

>  <r_epik_Charging_Adjusted_Penalty>  (1) 
0.13693623870853466

>  <r_epik_Ionization_Penalty>  (1) 
0.069127027575875924

>  <r_epik_Ionization_Penalty_Charging>  (1) 
0.068788428358952047

>  <r_epik_Ionization_Penalty_Neutral>  (1) 
0.00033859921692387109

>  <r_epik_State_Penalty>  (1) 
0.06814781034958263

>  <r_glide_ring_energy>  (1) 
0.028054261374209404

>  <r_i_docking_score>  (1) 
-5.9816723377091705

>  <r_i_glide_ecoul>  (1) 
-2.7439088847149784

>  <r_i_glide_eff_state_penalty>  (1) 
0.06814781034958263

>  <r_i_glide_einternal>  (1) 
5.2584631519353486

>  <r_i_glide_emodel>  (1) 
-38.086101254315864

>  <r_i_glide_emodel_strain>  (1) 
1.3502492477423118

>  <r_i_glide_energy>  (1) 
-32.413127076753163

>  <r_i_glide_erotb>  (1) 
0.61474503349198251

>  <r_i_glide_esite>  (1) 
-0.039557822536864927

>  <r_i_glide_evdw>  (1) 
-29.669218192038187

>  <r_i_glide_gscore>  (1) 
-6.0498201480587532

>  <r_i_glide_gscore_strain>  (1) 
0

>  <r_i_glide_hbond>  (1) 
0

>  <r_i_glide_ligand_efficiency>  (1) 
-0.18692726055341158

>  <r_i_glide_ligand_efficiency_ln>  (1) 
-1.3394594906427515

>  <r_i_glide_ligand_efficiency_sa>  (1) 
-0.59345706008803856

>  <r_i_glide_lipo>  (1) 
-3.4860210838854142

>  <r_i_glide_metal>  (1) 
-0

>  <r_i_glide_rewards>  (1) 
-1.243939032819301

>  <r_lp_Energy>  (1) 
34.162976

>  <r_lp_tautomer_probability>  (1) 
0.98846045845453334

>  <s_epik_Chemistry_Notes>  (1) 
This compound has an imine and may undergo hydrolysis.

>  <s_epik_cmdline>  (1) 
J2VwaWtfcHl0aG9uJywgJy1waHQnLCAnMS4wJywgJy1waCcsICc3LjQnLCAnLXRuJywgJzgnLCAnLW1hJywgJzUwMCcsICctaW1hZScsICc8aW5maWxlLm1hZT4nLCAnLW9tYWUnLCAnPG91dGZpbGUubWFlPic=

>  <s_epik_input>  (1) 
W2NIXTFbY0hdW2NIXWMoW09IXSljKFtDSDJdW0NIMl1bQ0gyXTIpYzFbQ0BASF0oW0NASF0yMylbQ0hdM24oW2NIXWM0W09IXSlbY0hdYzRbQ0gyXU9PW0NAQEhdKFtDSDJdTzUpW0NIMl1bQ0BASF01W0NAQEhdNltDSDJdW0NIMl1bQ0gyXVtOSF02

>  <s_glide_docking_method>  (1) 
confgen

>  <s_i_glide_gridfile>  (1) 
gpcr_drd2_6luq_protein_autoprepared_prepared

>  <s_lp_Force_Field>  (1) 
S-OPLS

>  <s_lp_Variant>  (1) 
DiffSBDD_9-1

>  <s_m_source_file>  (1) 
generated_generic_title2_ligand_DiffSBDD_2026-06-23_prepared.sdf

>  <GenAI_Model>  (1) 
DiffSBDD

>  <Protein>  (1) 
generic_title2

$$$$
DiffSBDD_34
     RDKit          3D

  0  0  0  0  0  0  0  0  0  0999 V3000
M  V30 BEGIN CTAB
M  V30 COUNTS 48 50 0 0 1
M  V30 BEGIN ATOM
M  V30 1 O 11.150994 6.607814 -7.096156 0
M  V30 2 C 6.493747 5.822317 -16.764635 0
M  V30 3 C 5.332522 6.617952 -19.239951 0
M  V30 4 C 11.097896 7.137223 -8.416260 0 CFG=2
M  V30 5 C 10.355231 8.805602 -6.881294 0
M  V30 6 C 7.952880 6.247991 -13.417256 0
M  V30 7 C 11.200160 8.633279 -8.137362 0
M  V30 8 C 10.357466 7.416006 -6.235384 0
M  V30 9 C 8.185474 4.945527 -12.934773 0
M  V30 10 N 7.379156 6.499126 -14.616447 0
M  V30 11 C 7.394429 3.684793 -17.924716 0
M  V30 12 C 6.023858 5.402831 -19.157705 0
M  V30 13 C 7.266132 4.105404 -15.000991 0
M  V30 14 C 7.073605 5.447880 -15.423888 0
M  V30 15 C 9.402384 5.253551 -8.900665 0
M  V30 16 O 10.829651 7.190226 -11.265727 0
M  V30 17 C 7.822963 3.860998 -13.737819 0
M  V30 18 C 8.345506 7.477155 -12.590655 0
M  V30 19 C 6.612972 4.991953 -17.943457 0
M  V30 20 C 9.777481 7.069711 -10.635054 0
M  V30 21 C 9.788228 6.731414 -9.131935 0 CFG=2
M  V30 22 C 5.224819 7.442939 -18.115680 0
M  V30 23 C 5.798082 7.055696 -16.892482 0
M  V30 24 N 8.575464 7.217078 -11.185396 0
M  V30 25 Cl 8.063790 2.243864 -13.187518 0
M  V30 26 H 4.889674 6.922196 -20.175732 0
M  V30 27 H 11.952539 6.792490 -8.994491 0
M  V30 28 H 9.335826 9.097991 -7.141901 0
M  V30 29 H 10.759098 9.570578 -6.219994 0
M  V30 30 H 12.237238 8.889838 -7.917279 0
M  V30 31 H 10.870460 9.244573 -8.978009 0
M  V30 32 H 9.346511 7.005974 -6.178584 0
M  V30 33 H 10.772540 7.425765 -5.227589 0
M  V30 34 H 8.632871 4.782316 -11.968499 0
M  V30 35 H 8.303879 3.751519 -17.327122 0
M  V30 36 H 6.771062 2.842735 -17.622068 0
M  V30 37 H 7.733811 3.450796 -18.934316 0
M  V30 38 H 6.112926 4.779700 -20.035734 0
M  V30 39 H 6.978770 3.280072 -15.619578 0
M  V30 40 H 8.495821 4.982518 -9.440754 0
M  V30 41 H 10.175345 4.554002 -9.200586 0
M  V30 42 H 9.191028 5.069469 -7.846617 0
M  V30 43 H 9.201883 7.989997 -12.997043 0
M  V30 44 H 7.526795 8.194174 -12.640899 0
M  V30 45 H 8.975569 7.304617 -8.682657 0
M  V30 46 H 4.699571 8.384474 -18.188270 0
M  V30 47 H 5.699394 7.704221 -16.034676 0
M  V30 48 H 7.753433 7.165979 -10.575037 0
M  V30 END ATOM
M  V30 BEGIN BOND
M  V30 1 1 4 1
M  V30 2 1 7 4
M  V30 3 1 7 5
M  V30 4 1 8 1
M  V30 5 1 8 5
M  V30 6 1 9 6
M  V30 7 2 10 6
M  V30 8 1 12 3
M  V30 9 1 14 2
M  V30 10 1 14 10
M  V30 11 2 14 13
M  V30 12 2 17 9
M  V30 13 1 17 13
M  V30 14 1 18 6
M  V30 15 1 19 2
M  V30 16 1 19 11
M  V30 17 2 19 12
M  V30 18 2 20 16
M  V30 19 1 21 4
M  V30 20 1 21 15
M  V30 21 1 21 20
M  V30 22 2 22 3
M  V30 23 2 23 2
M  V30 24 1 23 22
M  V30 25 1 24 18
M  V30 26 1 24 20
M  V30 27 1 25 17
M  V30 28 1 26 3
M  V30 29 1 4 27 CFG=3
M  V30 30 1 28 5
M  V30 31 1 29 5
M  V30 32 1 30 7
M  V30 33 1 31 7
M  V30 34 1 32 8
M  V30 35 1 33 8
M  V30 36 1 34 9
M  V30 37 1 35 11
M  V30 38 1 36 11
M  V30 39 1 37 11
M  V30 40 1 38 12
M  V30 41 1 39 13
M  V30 42 1 40 15
M  V30 43 1 41 15
M  V30 44 1 42 15
M  V30 45 1 43 18
M  V30 46 1 44 18
M  V30 47 1 21 45 CFG=1
M  V30 48 1 46 22
M  V30 49 1 47 23
M  V30 50 1 48 24
M  V30 END BOND
M  V30 END CTAB
M  END
>  <i_epik_Tot_Q>  (1) 
0

>  <i_epik_Tot_abs_Q>  (1) 
0

>  <i_i_glide_confnum>  (1) 
92

>  <i_i_glide_lignum>  (1) 
57

>  <i_i_glide_posenum>  (1) 
235

>  <i_i_glide_rotatable_bonds>  (1) 
6

>  <i_lp_mmshare_version>  (1) 
72125

>  <i_m_source_file_index>  (1) 
35

>  <i_f3d_flags>  (1) 
0

>  <num_sample>  (1) 
100

>  <b_lp_Chiralities_Consistent>  (1) 
1

>  <r_epik_Charging_Adjusted_Penalty>  (1) 
0

>  <r_epik_Ionization_Penalty>  (1) 
0.00017143064018834461

>  <r_epik_Ionization_Penalty_Charging>  (1) 
0

>  <r_epik_Ionization_Penalty_Neutral>  (1) 
0.00017143064018834461

>  <r_epik_State_Penalty>  (1) 
-0

>  <r_glide_ring_energy>  (1) 
1.2359945553335399

>  <r_i_docking_score>  (1) 
-5.9772346496617823

>  <r_i_glide_ecoul>  (1) 
-5.7411805384080248

>  <r_i_glide_eff_state_penalty>  (1) 
-0

>  <r_i_glide_einternal>  (1) 
4.4056303215533212

>  <r_i_glide_emodel>  (1) 
-40.720470412897598

>  <r_i_glide_emodel_strain>  (1) 
0.18450032369621994

>  <r_i_glide_energy>  (1) 
-31.727793055879928

>  <r_i_glide_erotb>  (1) 
0.74388536090720081

>  <r_i_glide_esite>  (1) 
-0.17674164900349726

>  <r_i_glide_evdw>  (1) 
-25.986612517471904

>  <r_i_glide_gscore>  (1) 
-5.9772346496617823

>  <r_i_glide_gscore_strain>  (1) 
0

>  <r_i_glide_hbond>  (1) 
-0.14938454056433911

>  <r_i_glide_ligand_efficiency>  (1) 
-0.23908938598647128

>  <r_i_glide_ligand_efficiency_ln>  (1) 
-1.4167837352379322

>  <r_i_glide_ligand_efficiency_sa>  (1) 
-0.69910160564286472

>  <r_i_glide_lipo>  (1) 
-2.4165343817980798

>  <r_i_glide_metal>  (1) 
-0

>  <r_i_glide_rewards>  (1) 
-1.8179517325682668

>  <r_lp_Energy>  (1) 
21.087142

>  <r_lp_tautomer_probability>  (1) 
1

>  <s_epik_cmdline>  (1) 
J2VwaWtfcHl0aG9uJywgJy1waHQnLCAnMS4wJywgJy1waCcsICc3LjQnLCAnLXRuJywgJzgnLCAnLW1hJywgJzUwMCcsICctaW1hZScsICc8aW5maWxlLm1hZT4nLCAnLW9tYWUnLCAnPG91dGZpbGUubWFlPic=

>  <s_epik_input>  (1) 
W0NIMl0xW0NIMl1bQ0gyXU9bQ0BIXTFbQ0BIXShbQ0gzXSlDKD1PKVtOSF1bQ0gyXWMyW2NIXWMoQ2wpW2NIXWMobjIpLWMzYyhbQ0gzXSlbY0hdW2NIXVtjSF1bY0hdMw==

>  <s_glide_docking_method>  (1) 
confgen

>  <s_i_glide_gridfile>  (1) 
gpcr_drd2_6luq_protein_autoprepared_prepared

>  <s_lp_Force_Field>  (1) 
S-OPLS

>  <s_lp_Variant>  (1) 
DiffSBDD_34-1

>  <s_m_source_file>  (1) 
generated_generic_title2_ligand_DiffSBDD_2026-06-23_prepared.sdf

>  <GenAI_Model>  (1) 
DiffSBDD

>  <Protein>  (1) 
generic_title2

$$$$
DiffSBDD_10
     RDKit          3D

  0  0  0  0  0  0  0  0  0  0999 V3000
M  V30 BEGIN CTAB
M  V30 COUNTS 56 60 0 0 1
M  V30 BEGIN ATOM
M  V30 1 S 9.587402 7.039884 -11.823375 0
M  V30 2 C 10.311833 7.122886 -9.186602 0
M  V30 3 C 7.915877 4.771511 -11.735144 0 CFG=1
M  V30 4 C 11.153493 8.034019 -6.052439 0
M  V30 5 C 5.374082 5.398107 -12.154645 0
M  V30 6 C 11.572796 7.999461 -4.580899 0
M  V30 7 O 8.522216 7.693047 -12.596528 0
M  V30 8 C 5.401583 4.360878 -13.301348 0
M  V30 9 C 12.178015 6.770248 -2.545962 0
M  V30 10 C 6.596802 2.135812 -14.018535 0
M  V30 11 C 7.949754 1.570176 -13.557707 0
M  V30 12 N 9.263018 5.347758 -11.720211 0
M  V30 13 C 7.191846 4.678288 -10.409453 0
M  V30 14 C 6.377421 3.223984 -12.990892 0 CFG=1
M  V30 15 O 11.002593 7.189847 -12.189933 0
M  V30 16 C 11.776158 6.773207 -3.898467 0
M  V30 17 N 9.375390 7.443893 -10.163893 0
M  V30 18 C 6.701067 5.650053 -11.457928 0 CFG=1
M  V30 19 C 11.765123 9.208311 -3.866639 0
M  V30 20 C 10.401621 9.252824 -6.511049 0
M  V30 21 C 12.362169 7.983207 -1.864623 0
M  V30 22 O 11.519613 7.190708 -9.389535 0
M  V30 23 O 8.575488 2.600311 -12.785038 0
M  V30 24 C 10.706186 6.669136 -6.626843 0
M  V30 25 C 12.143673 9.190090 -2.520505 0
M  V30 26 C 9.738462 6.656486 -7.844824 0
M  V30 27 C 11.844971 9.104506 -6.898977 0
M  V30 28 C 7.787387 3.775592 -12.874976 0 CFG=2
M  V30 29 H 4.666561 5.090531 -11.388105 0
M  V30 30 H 4.996448 6.346363 -12.537629 0
M  V30 31 H 4.398756 3.975265 -13.479642 0
M  V30 32 H 5.702312 4.856185 -14.224491 0
M  V30 33 H 12.345671 5.833195 -2.034493 0
M  V30 34 H 5.807044 1.384351 -14.024345 0
M  V30 35 H 6.684568 2.561591 -15.020020 0
M  V30 36 H 7.812157 0.696772 -12.918063 0
M  V30 37 H 8.574773 1.272568 -14.401233 0
M  V30 38 H 10.008896 4.745341 -12.072133 0
M  V30 39 H 6.543429 3.833538 -10.188947 0
M  V30 40 H 7.672103 5.114613 -9.536758 0
M  V30 41 H 6.081039 2.737928 -12.061461 0
M  V30 42 H 11.640932 5.835047 -4.410524 0
M  V30 43 H 8.376435 7.590250 -9.920062 0
M  V30 44 H 6.833892 6.690700 -11.185319 0
M  V30 45 H 11.619702 10.156586 -4.354030 0
M  V30 46 H 9.671419 9.189608 -7.310319 0
M  V30 47 H 10.175386 9.989930 -5.760571 0
M  V30 48 H 12.671787 7.990126 -0.831378 0
M  V30 49 H 11.584767 6.050586 -6.824457 0
M  V30 50 H 10.133372 6.157526 -5.853023 0
M  V30 51 H 12.274702 10.118906 -1.991306 0
M  V30 52 H 9.427535 5.624819 -8.011135 0
M  V30 53 H 8.818301 7.195809 -7.615508 0
M  V30 54 H 12.555495 9.768339 -6.410015 0
M  V30 55 H 12.046367 8.971083 -7.952914 0
M  V30 56 H 8.064128 4.287519 -13.800581 0
M  V30 END ATOM
M  V30 BEGIN BOND
M  V30 1 1 6 4
M  V30 2 2 7 1
M  V30 3 1 8 5
M  V30 4 1 11 10
M  V30 5 1 12 1
M  V30 6 1 3 12 CFG=1
M  V30 7 1 13 3
M  V30 8 1 14 8
M  V30 9 1 14 10
M  V30 10 2 15 1
M  V30 11 2 16 6
M  V30 12 1 16 9
M  V30 13 1 17 1
M  V30 14 1 17 2
M  V30 15 1 18 3
M  V30 16 1 18 5
M  V30 17 1 18 13
M  V30 18 1 19 6
M  V30 19 1 20 4
M  V30 20 2 21 9
M  V30 21 2 22 2
M  V30 22 1 23 11
M  V30 23 1 24 4
M  V30 24 2 25 19
M  V30 25 1 25 21
M  V30 26 1 26 2
M  V30 27 1 26 24
M  V30 28 1 27 4
M  V30 29 1 27 20
M  V30 30 1 28 3
M  V30 31 1 28 14
M  V30 32 1 28 23
M  V30 33 1 29 5
M  V30 34 1 30 5
M  V30 35 1 31 8
M  V30 36 1 32 8
M  V30 37 1 33 9
M  V30 38 1 34 10
M  V30 39 1 35 10
M  V30 40 1 36 11
M  V30 41 1 37 11
M  V30 42 1 38 12
M  V30 43 1 39 13
M  V30 44 1 40 13
M  V30 45 1 14 41 CFG=1
M  V30 46 1 42 16
M  V30 47 1 43 17
M  V30 48 1 18 44 CFG=1
M  V30 49 1 45 19
M  V30 50 1 46 20
M  V30 51 1 47 20
M  V30 52 1 48 21
M  V30 53 1 49 24
M  V30 54 1 50 24
M  V30 55 1 51 25
M  V30 56 1 52 26
M  V30 57 1 53 26
M  V30 58 1 54 27
M  V30 59 1 55 27
M  V30 60 1 28 56 CFG=3
M  V30 END BOND
M  V30 END CTAB
M  END
>  <i_epik_Tot_Q>  (1) 
0

>  <i_epik_Tot_abs_Q>  (1) 
0

>  <i_i_glide_confnum>  (1) 
230

>  <i_i_glide_lignum>  (1) 
20

>  <i_i_glide_posenum>  (1) 
2

>  <i_i_glide_rotatable_bonds>  (1) 
8

>  <i_lp_mmshare_version>  (1) 
72125

>  <i_m_source_file_index>  (1) 
11

>  <i_f3d_flags>  (1) 
0

>  <num_sample>  (1) 
100

>  <b_lp_Chiralities_Consistent>  (1) 
1

>  <r_epik_Charging_Adjusted_Penalty>  (1) 
1.0976853204972508

>  <r_epik_Ionization_Penalty>  (1) 
2.0664492353545092

>  <r_epik_Ionization_Penalty_Charging>  (1) 
0

>  <r_epik_Ionization_Penalty_Neutral>  (1) 
2.0664492353545092

>  <r_epik_State_Penalty>  (1) 
1.0976853204972508

>  <r_glide_ring_energy>  (1) 
0

>  <r_i_docking_score>  (1) 
-5.9764363499866882

>  <r_i_glide_ecoul>  (1) 
-10.916399472253916

>  <r_i_glide_eff_state_penalty>  (1) 
1.0976853204972508

>  <r_i_glide_einternal>  (1) 
7.0570454604257886

>  <r_i_glide_emodel>  (1) 
-53.778951125243985

>  <r_i_glide_emodel_strain>  (1) 
6.6758696625854412

>  <r_i_glide_energy>  (1) 
-45.504343547694766

>  <r_i_glide_erotb>  (1) 
0.84027593632591602

>  <r_i_glide_esite>  (1) 
-0.215586525531407

>  <r_i_glide_evdw>  (1) 
-34.587944075440852

>  <r_i_glide_gscore>  (1) 
-7.0741216704839385

>  <r_i_glide_gscore_strain>  (1) 
0.66896741564636031

>  <r_i_glide_hbond>  (1) 
-0.16

>  <r_i_glide_ligand_efficiency>  (1) 
-0.21344415535666744

>  <r_i_glide_ligand_efficiency_ln>  (1) 
-1.379536985373063

>  <r_i_glide_ligand_efficiency_sa>  (1) 
-0.64814216826737203

>  <r_i_glide_lipo>  (1) 
-3.4689897169542641

>  <r_i_glide_metal>  (1) 
-0

>  <r_i_glide_rewards>  (1) 
-1.3719316553604144

>  <r_lp_Energy>  (1) 
1.11948

>  <s_epik_cmdline>  (1) 
J2VwaWtfcHl0aG9uJywgJy1waHQnLCAnMS4wJywgJy1waCcsICc3LjQnLCAnLXRuJywgJzgnLCAnLW1hJywgJzUwMCcsICctaW1hZScsICc8aW5maWxlLm1hZT4nLCAnLW9tYWUnLCAnPG91dGZpbGUubWFlPic=

>  <s_epik_input>  (1) 
W0NIMl0xW0NIMl1PW0NASF0yW0NASF0xW0NIMl1bQ0gyXVtDQEBIXShbQ0gyXTMpW0NAXTIzW05IXVMoPU8pKD1PKVtOSF1DKD1PKVtDSDJdW0NIMl1DNChbQ0gyXVtDSDJdNCljNVtjSF1bY0hdW2NIXVtjSF1bY0hdNQ==

>  <s_glide_docking_method>  (1) 
confgen

>  <s_i_glide_gridfile>  (1) 
gpcr_drd2_6luq_protein_autoprepared_prepared

>  <s_lp_Force_Field>  (1) 
S-OPLS

>  <s_lp_Variant>  (1) 
DiffSBDD_10-3

>  <s_m_source_file>  (1) 
generated_generic_title2_ligand_DiffSBDD_2026-06-23_prepared.sdf

>  <GenAI_Model>  (1) 
DiffSBDD

>  <Protein>  (1) 
generic_title2

$$$$
DiffSBDD_77
     RDKit          3D

  0  0  0  0  0  0  0  0  0  0999 V3000
M  V30 BEGIN CTAB
M  V30 COUNTS 64 67 0 0 1
M  V30 BEGIN ATOM
M  V30 1 N 12.866761 9.477857 -3.639021 0
M  V30 2 C 7.686996 8.096670 -11.985001 0
M  V30 3 C 6.498301 6.943885 -17.049155 0
M  V30 4 C 10.349355 6.229769 -7.717441 0
M  V30 5 C 10.290708 8.759967 -7.184617 0
M  V30 6 C 5.304097 7.386097 -14.956744 0
M  V30 7 C 12.378941 6.674207 -2.281691 0
M  V30 8 N 9.483064 5.993544 -8.879608 0
M  V30 9 C 9.067045 5.999761 -11.360104 0 CFG=1
M  V30 10 C 12.063720 8.481816 -4.170287 0
M  V30 11 C 7.505438 4.586403 -15.553413 0
M  V30 12 C 8.376778 5.057016 -8.664312 0
M  V30 13 C 9.775399 6.554179 -10.093684 0
M  V30 14 N 10.721249 7.435481 -5.515806 0
M  V30 15 C 9.214587 4.481510 -11.469259 0 CFG=2
M  V30 16 C 9.856188 7.301342 -6.753616 0 CFG=2
M  V30 17 C 11.375745 8.563945 -5.324115 0
M  V30 18 C 10.975389 6.557123 -4.466833 0
M  V30 19 C 6.675534 7.305680 -15.554389 0
M  V30 20 C 7.680956 6.570696 -11.766475 0 CFG=2
M  V30 21 C 9.549601 3.891478 -12.803336 0
M  V30 22 C 11.114988 9.370094 -6.344983 0
M  V30 23 C 11.830617 7.202497 -3.580190 0
M  V30 24 O 10.636697 7.426812 -10.221354 0
M  V30 25 C 7.017086 5.811444 -12.954404 0 CFG=1
M  V30 26 S 7.774892 6.137202 -14.633833 0 CHG=1
M  V30 27 C 6.893185 4.314303 -12.614331 0
M  V30 28 C 8.196366 3.658429 -12.223602 0 CFG=2
M  V30 29 H 13.222881 9.406464 -2.695003 0
M  V30 30 H 12.886952 10.393575 -4.054278 0
M  V30 31 H 8.172178 8.387004 -12.915026 0
M  V30 32 H 6.663836 8.466928 -11.985007 0
M  V30 33 H 8.200435 8.626436 -11.185036 0
M  V30 34 H 5.950335 7.727244 -17.571752 0
M  V30 35 H 7.431166 6.790258 -17.584956 0
M  V30 36 H 5.904270 6.038254 -17.176001 0
M  V30 37 H 11.372429 6.450656 -8.024484 0
M  V30 38 H 10.432480 5.286188 -7.184688 0
M  V30 39 H 9.925109 9.190209 -8.102319 0
M  V30 40 H 4.608229 7.938178 -15.591279 0
M  V30 41 H 4.973710 6.356903 -14.863394 0
M  V30 42 H 5.289883 7.866434 -13.980345 0
M  V30 43 H 12.526339 7.498180 -1.585016 0
M  V30 44 H 11.675694 5.972870 -1.833774 0
M  V30 45 H 13.334687 6.170777 -2.417342 0
M  V30 46 H 9.719608 6.368197 -12.153489 0
M  V30 47 H 7.879798 4.674358 -16.573074 0
M  V30 48 H 8.034491 3.750887 -15.099701 0
M  V30 49 H 6.445402 4.346735 -15.584829 0
M  V30 50 H 7.684343 4.897141 -9.484998 0
M  V30 51 H 8.774965 4.098728 -8.339166 0
M  V30 52 H 7.775191 5.436209 -7.839187 0
M  V30 53 H 9.742623 3.991164 -10.654064 0
M  V30 54 H 8.801185 7.233873 -6.487232 0
M  V30 55 H 10.525328 5.590121 -4.439234 0
M  V30 56 H 7.086845 8.309539 -15.460612 0
M  V30 57 H 7.019936 6.390177 -10.923330 0
M  V30 58 H 9.723118 4.566954 -13.632216 0
M  V30 59 H 10.175420 3.015495 -12.784878 0
M  V30 60 H 11.532613 10.360727 -6.443239 0
M  V30 61 H 5.982840 6.128881 -12.957183 0
M  V30 62 H 6.402044 3.736194 -13.394270 0
M  V30 63 H 6.230332 4.217144 -11.752885 0
M  V30 64 H 8.092899 2.613243 -11.985199 0
M  V30 END ATOM
M  V30 BEGIN BOND
M  V30 1 1 8 4
M  V30 2 1 10 1
M  V30 3 1 12 8
M  V30 4 1 13 8
M  V30 5 1 13 9
M  V30 6 1 15 9
M  V30 7 1 16 4
M  V30 8 1 16 5
M  V30 9 1 16 14
M  V30 10 2 17 10
M  V30 11 1 17 14
M  V30 12 1 18 14
M  V30 13 1 19 3
M  V30 14 1 19 6
M  V30 15 1 20 2
M  V30 16 1 20 9
M  V30 17 1 21 15
M  V30 18 2 22 5
M  V30 19 1 22 17
M  V30 20 1 23 7
M  V30 21 1 23 10
M  V30 22 2 23 18
M  V30 23 2 24 13
M  V30 24 1 25 20
M  V30 25 1 26 11 CFG=3
M  V30 26 1 26 19
M  V30 27 1 26 25
M  V30 28 1 27 25
M  V30 29 1 28 15
M  V30 30 1 28 21
M  V30 31 1 28 27
M  V30 32 1 29 1
M  V30 33 1 30 1
M  V30 34 1 31 2
M  V30 35 1 32 2
M  V30 36 1 33 2
M  V30 37 1 34 3
M  V30 38 1 35 3
M  V30 39 1 36 3
M  V30 40 1 37 4
M  V30 41 1 38 4
M  V30 42 1 39 5
M  V30 43 1 40 6
M  V30 44 1 41 6
M  V30 45 1 42 6
M  V30 46 1 43 7
M  V30 47 1 44 7
M  V30 48 1 45 7
M  V30 49 1 9 46 CFG=3
M  V30 50 1 47 11
M  V30 51 1 48 11
M  V30 52 1 49 11
M  V30 53 1 50 12
M  V30 54 1 51 12
M  V30 55 1 52 12
M  V30 56 1 15 53 CFG=1
M  V30 57 1 16 54 CFG=1
M  V30 58 1 55 18
M  V30 59 1 56 19
M  V30 60 1 20 57 CFG=1
M  V30 61 1 58 21
M  V30 62 1 59 21
M  V30 63 1 60 22
M  V30 64 1 25 61 CFG=3
M  V30 65 1 62 27
M  V30 66 1 63 27
M  V30 67 1 28 64 CFG=1
M  V30 END BOND
M  V30 END CTAB
M  END
>  <i_epik_Tot_Q>  (1) 
1

>  <i_epik_Tot_abs_Q>  (1) 
1

>  <i_i_glide_confnum>  (1) 
22

>  <i_i_glide_lignum>  (1) 
128

>  <i_i_glide_posenum>  (1) 
253

>  <i_i_glide_rotatable_bonds>  (1) 
6

>  <i_lp_mmshare_version>  (1) 
72125

>  <i_m_source_file_index>  (1) 
78

>  <i_f3d_flags>  (1) 
0

>  <num_sample>  (1) 
100

>  <b_lp_Chiralities_Consistent>  (1) 
1

>  <r_epik_Charging_Adjusted_Penalty>  (1) 
0

>  <r_epik_Ionization_Penalty>  (1) 
0.00035710652682445374

>  <r_epik_Ionization_Penalty_Charging>  (1) 
0

>  <r_epik_Ionization_Penalty_Neutral>  (1) 
0.00035710652682445374

>  <r_epik_State_Penalty>  (1) 
-0

>  <r_glide_ring_energy>  (1) 
0

>  <r_i_docking_score>  (1) 
-5.9719531489312185

>  <r_i_glide_ecoul>  (1) 
-3.9307363332998597

>  <r_i_glide_eff_state_penalty>  (1) 
-0

>  <r_i_glide_einternal>  (1) 
10.665529635876098

>  <r_i_glide_emodel>  (1) 
-30.635527594478731

>  <r_i_glide_emodel_strain>  (1) 
6.2622601060874388

>  <r_i_glide_energy>  (1) 
-31.624567816506481

>  <r_i_glide_erotb>  (1) 
0.60532363573914161

>  <r_i_glide_esite>  (1) 
-0.1393772731527215

>  <r_i_glide_evdw>  (1) 
-27.693831483206623

>  <r_i_glide_gscore>  (1) 
-5.9719531489312185

>  <r_i_glide_gscore_strain>  (1) 
0.56556502652185969

>  <r_i_glide_hbond>  (1) 
-0.039818104079384374

>  <r_i_glide_ligand_efficiency>  (1) 
-0.21328404103325779

>  <r_i_glide_ligand_efficiency_ln>  (1) 
-1.3785021309369578

>  <r_i_glide_ligand_efficiency_sa>  (1) 
-0.647655966878667

>  <r_i_glide_lipo>  (1) 
-3.3259071037825949

>  <r_i_glide_metal>  (1) 
-0

>  <r_i_glide_rewards>  (1) 
-1.6634373060222087

>  <r_lp_Energy>  (1) 
24.865627999999997

>  <r_lp_tautomer_probability>  (1) 
1

>  <s_epik_cmdline>  (1) 
J2VwaWtfcHl0aG9uJywgJy1waHQnLCAnMS4wJywgJy1waCcsICc3LjQnLCAnLXRuJywgJzgnLCAnLW1hJywgJzUwMCcsICctaW1hZScsICc8aW5maWxlLm1hZT4nLCAnLW9tYWUnLCAnPG91dGZpbGUubWFlPic=

>  <s_epik_input>  (1) 
W0NIM11jKFtjSF0xKWMoW05IMl0pYyhuMTIpW0NIXT1bQ0hdW0NASF0yW0NIMl1OKFtDSDNdKUMoPU8pW0NAQEhdM1tDQEBIXShbQ0gzXSlbQ0BASF0oW1MrXShbQ0gzXSlbQ0hdKFtDSDNdKVtDSDNdKVtDSDJdW0NASF0oW0NIXTM0KVtDSDJdNA==

>  <s_glide_docking_method>  (1) 
confgen

>  <s_i_glide_gridfile>  (1) 
gpcr_drd2_6luq_protein_autoprepared_prepared

>  <s_lp_Force_Field>  (1) 
S-OPLS

>  <s_lp_Variant>  (1) 
DiffSBDD_77-1

>  <s_m_source_file>  (1) 
generated_generic_title2_ligand_DiffSBDD_2026-06-23_prepared.sdf

>  <GenAI_Model>  (1) 
DiffSBDD

>  <Protein>  (1) 
generic_title2

$$$$
DiffSBDD_90
     RDKit          3D

  0  0  0  0  0  0  0  0  0  0999 V3000
M  V30 BEGIN CTAB
M  V30 COUNTS 80 84 0 0 1
M  V30 BEGIN ATOM
M  V30 1 C 7.331134 7.423389 -13.332383 0
M  V30 2 C 8.417706 6.400717 -13.016412 0 CFG=1
M  V30 3 C 10.038575 7.769252 -10.061968 0
M  V30 4 C 8.600048 5.737870 -17.993871 0 CFG=2
M  V30 5 C 10.750564 7.030800 -11.987625 0
M  V30 6 C 10.150774 8.322530 -8.730579 0 CFG=2
M  V30 7 C 6.670514 4.151298 -14.966262 0 CFG=2
M  V30 8 O 6.481252 6.890255 -15.397964 0 CHG=-1
M  V30 9 C 6.288363 6.629095 -14.134915 0 CFG=1
M  V30 10 C 9.570141 5.692867 -20.383140 0
M  V30 11 O 4.735170 5.436714 -20.385075 0
M  V30 12 C 9.374102 6.897811 -11.985046 0
M  V30 13 C 7.120534 4.439163 -11.589040 0 CFG=2
M  V30 14 O 5.912842 4.130588 -18.991722 0 CHG=-1
M  V30 15 O 9.764239 5.312127 -17.561071 0 CHG=-1
M  V30 16 C 7.837205 4.187302 -16.038387 0 CFG=2
M  V30 17 N 7.549313 5.213389 -17.075160 0 CHG=1
M  V30 18 N 6.604321 5.185173 -13.881335 0 CFG=2 CHG=1
M  V30 19 C 6.026961 7.956404 -20.803097 0
M  V30 20 C 8.117417 2.841259 -16.786154 0
M  V30 21 O 7.695608 4.791173 -10.351797 0
M  V30 22 O 6.975405 2.294087 -17.413875 0
M  V30 23 O 7.697807 1.289967 -12.785025 0
M  V30 24 C 8.132309 3.713121 -12.463587 0 CFG=1
M  V30 25 C 5.775217 5.091655 -19.781950 0
M  V30 26 C 6.535901 2.801640 -14.234817 0
M  V30 27 N 11.072154 7.590213 -10.781711 0
M  V30 28 O 5.123867 8.144178 -19.984974 0
M  V30 29 C 11.712128 8.673294 -8.911041 0
M  V30 30 N 8.975432 7.377920 -10.758309 0 CHG=1
M  V30 31 C 8.364300 5.325768 -19.480838 0 CFG=2
M  V30 32 O 10.178243 8.904391 -6.069492 0
M  V30 33 O 9.864396 7.336657 -7.740682 0
M  V30 34 C 10.358803 7.582604 -6.462399 0
M  V30 35 C 6.068965 8.763791 -22.096393 0
M  V30 36 C 7.049489 5.933913 -20.041646 0
M  V30 37 C 7.776645 2.551737 -13.392389 0 CFG=2
M  V30 38 C 11.172003 9.378668 -5.173686 0
M  V30 39 N 7.082426 7.060117 -20.681228 0
M  V30 40 C 12.320082 7.990384 -10.222460 0
M  V30 41 C 7.653151 5.109570 -12.847183 0 CFG=1
M  V30 42 H 6.870746 7.776004 -12.407907 0
M  V30 43 H 7.724866 8.299176 -13.852299 0
M  V30 44 H 8.975413 6.243759 -13.932051 0
M  V30 45 H 8.369688 6.790217 -17.994681 0
M  V30 46 H 11.490190 6.792871 -12.741331 0
M  V30 47 H 9.500828 9.190223 -8.653698 0
M  V30 48 H 5.775410 4.390253 -15.497276 0
M  V30 49 H 5.323629 6.803663 -13.658767 0
M  V30 50 H 9.378236 5.446059 -21.427893 0
M  V30 51 H 9.806866 6.755835 -20.323368 0
M  V30 52 H 10.465061 5.144437 -20.086788 0
M  V30 53 H 6.106098 4.049406 -11.523096 0
M  V30 54 H 8.741057 4.464282 -15.495836 0
M  V30 55 H 6.792067 4.868826 -17.663067 0
M  V30 56 H 8.515983 2.073945 -16.128477 0
M  V30 57 H 8.886212 2.954929 -17.549090 0
M  V30 58 H 7.077055 5.310540 -9.852446 0
M  V30 59 H 6.630193 2.905296 -18.072591 0
M  V30 60 H 8.458735 1.167488 -12.227631 0
M  V30 61 H 9.140349 3.645410 -12.054968 0
M  V30 62 H 5.657547 2.801574 -13.585375 0
M  V30 63 H 6.385661 1.976666 -14.929853 0
M  V30 64 H 11.775331 9.750994 -9.066259 0
M  V30 65 H 12.325175 8.475609 -8.033777 0
M  V30 66 H 8.297674 4.238555 -19.531868 0
M  V30 67 H 9.828265 6.937571 -5.760002 0
M  V30 68 H 11.409854 7.290555 -6.437680 0
M  V30 69 H 6.858700 9.513080 -22.049883 0
M  V30 70 H 6.261048 8.113314 -22.949356 0
M  V30 71 H 5.121609 9.275210 -22.264285 0
M  V30 72 H 8.575410 2.458364 -14.091480 0
M  V30 73 H 10.903889 10.376388 -4.823628 0
M  V30 74 H 11.273767 8.729266 -4.303239 0
M  V30 75 H 12.142923 9.448147 -5.665276 0
M  V30 76 H 12.912078 7.119492 -9.984992 0
M  V30 77 H 12.859218 8.678863 -10.872599 0
M  V30 78 H 8.004302 7.437468 -10.416792 0
M  V30 79 H 7.169987 6.011256 -16.527814 0
M  V30 80 H 5.775013 4.892823 -13.386625 0
M  V30 END ATOM
M  V30 BEGIN BOND
M  V30 1 1 2 1
M  V30 2 1 6 3
M  V30 3 1 9 1
M  V30 4 1 9 8
M  V30 5 1 12 2
M  V30 6 2 12 5
M  V30 7 1 15 4
M  V30 8 1 16 7
M  V30 9 1 17 4
M  V30 10 1 17 16
M  V30 11 1 18 7
M  V30 12 1 18 9
M  V30 13 1 20 16
M  V30 14 1 21 13
M  V30 15 1 22 20
M  V30 16 1 24 13
M  V30 17 2 25 11
M  V30 18 1 25 14
M  V30 19 1 26 7
M  V30 20 1 27 3
M  V30 21 1 27 5
M  V30 22 2 28 19
M  V30 23 1 29 6
M  V30 24 2 30 3
M  V30 25 1 30 12
M  V30 26 1 31 4
M  V30 27 1 31 10
M  V30 28 1 33 6
M  V30 29 1 34 32
M  V30 30 1 34 33
M  V30 31 1 35 19
M  V30 32 1 36 25
M  V30 33 1 36 31
M  V30 34 1 37 23
M  V30 35 1 37 24
M  V30 36 1 37 26
M  V30 37 1 38 32
M  V30 38 1 39 19
M  V30 39 2 39 36
M  V30 40 1 40 27
M  V30 41 1 40 29
M  V30 42 1 41 2 CFG=1
M  V30 43 1 41 13
M  V30 44 1 41 18
M  V30 45 1 41 24
M  V30 46 1 42 1
M  V30 47 1 43 1
M  V30 48 1 2 44 CFG=3
M  V30 49 1 4 45 CFG=3
M  V30 50 1 46 5
M  V30 51 1 6 47 CFG=3
M  V30 52 1 7 48 CFG=3
M  V30 53 1 9 49 CFG=1
M  V30 54 1 50 10
M  V30 55 1 51 10
M  V30 56 1 52 10
M  V30 57 1 13 53 CFG=1
M  V30 58 1 16 54 CFG=1
M  V30 59 1 55 17
M  V30 60 1 56 20
M  V30 61 1 57 20
M  V30 62 1 58 21
M  V30 63 1 59 22
M  V30 64 1 60 23
M  V30 65 1 24 61 CFG=1
M  V30 66 1 62 26
M  V30 67 1 63 26
M  V30 68 1 64 29
M  V30 69 1 65 29
M  V30 70 1 31 66 CFG=1
M  V30 71 1 67 34
M  V30 72 1 68 34
M  V30 73 1 69 35
M  V30 74 1 70 35
M  V30 75 1 71 35
M  V30 76 1 37 72 CFG=3
M  V30 77 1 73 38
M  V30 78 1 74 38
M  V30 79 1 75 38
M  V30 80 1 76 40
M  V30 81 1 77 40
M  V30 82 1 78 30
M  V30 83 1 79 17
M  V30 84 1 18 80 CFG=1
M  V30 END BOND
M  V30 END CTAB
M  END
>  <i_epik_Tot_Q>  (1) 
0

>  <i_epik_Tot_abs_Q>  (1) 
6

>  <i_i_glide_confnum>  (1) 
3433

>  <i_i_glide_lignum>  (1) 
169

>  <i_i_glide_posenum>  (1) 
332

>  <i_i_glide_rotatable_bonds>  (1) 
15

>  <i_lp_mmshare_version>  (1) 
72125

>  <i_m_source_file_index>  (1) 
91

>  <i_f3d_flags>  (1) 
0

>  <num_sample>  (1) 
100

>  <b_lp_Chiralities_Consistent>  (1) 
1

>  <r_epik_Charging_Adjusted_Penalty>  (1) 
0.35079833336250127

>  <r_epik_Ionization_Penalty>  (1) 
1.4702178244609605

>  <r_epik_Ionization_Penalty_Charging>  (1) 
0.099885809697688246

>  <r_epik_Ionization_Penalty_Neutral>  (1) 
1.3703320147632723

>  <r_epik_State_Penalty>  (1) 
0.25091252366481304

>  <r_glide_ring_energy>  (1) 
0

>  <r_i_docking_score>  (1) 
-5.9711310829007518

>  <r_i_glide_ecoul>  (1) 
-10.151906451475291

>  <r_i_glide_eff_state_penalty>  (1) 
0.25091252366481304

>  <r_i_glide_einternal>  (1) 
17.689402951919256

>  <r_i_glide_emodel>  (1) 
-48.549526854760373

>  <r_i_glide_emodel_strain>  (1) 
2.9341643823403274

>  <r_i_glide_energy>  (1) 
-41.10479562439874

>  <r_i_glide_erotb>  (1) 
0.57888693115673628

>  <r_i_glide_esite>  (1) 
-0.17890721420249034

>  <r_i_glide_evdw>  (1) 
-30.952889172923449

>  <r_i_glide_gscore>  (1) 
-6.2220436065655651

>  <r_i_glide_gscore_strain>  (1) 
0

>  <r_i_glide_hbond>  (1) 
-0.51582122842095557

>  <r_i_glide_ligand_efficiency>  (1) 
-0.14563734348538418

>  <r_i_glide_ligand_efficiency_ln>  (1) 
-1.2667953302506139

>  <r_i_glide_ligand_efficiency_sa>  (1) 
-0.50218919864984335

>  <r_i_glide_lipo>  (1) 
-1.7267107583874521

>  <r_i_glide_metal>  (1) 
-0

>  <r_i_glide_rewards>  (1) 
-1.3090609103439375

>  <r_lp_Energy>  (1) 
80.22188899999999

>  <r_lp_tautomer_probability>  (1) 
1

>  <s_epik_Chemistry_Notes>  (1) 
This compound has an imine and may undergo hydrolysis. This compound contains an acetal/aminal-like group ( X-CH(R)-Y where X, Y are N, S, or O) that may be acid/base labile, releasing an aldehyde.

>  <s_epik_cmdline>  (1) 
J2VwaWtfcHl0aG9uJywgJy1waHQnLCAnMS4wJywgJy1waCcsICc3LjQnLCAnLXRuJywgJzgnLCAnLW1hJywgJzUwMCcsICctaW1hZScsICc8aW5maWxlLm1hZT4nLCAnLW9tYWUnLCAnPG91dGZpbGUubWFlPic=

>  <s_epik_input>  (1) 
W0NIM11PW0NIMl1PW0NASF0xW0NIMl1bQ0gyXW4oYzEyKVtjSF1jKG4yKVtDQEBIXTNbQ0gyXVtDQEBIXShbT0hdKU4oW0NAQF0zNDUpW0NASF0oW0NIMl1bQ0BIXShbT0hdKVtDQEBIXTVbQ0BIXTRbT0hdKVtDQEBIXShbQ0gyXVtPSF0pW05IXVtDQEBIXShbT0hdKVtDQEhdKFtDSDNdKUMoXEMoPU8pW09IXSk9TlxDKD1PKVtDSDNd

>  <s_glide_docking_method>  (1) 
confgen

>  <s_i_glide_gridfile>  (1) 
gpcr_drd2_6luq_protein_autoprepared_prepared

>  <s_lp_Force_Field>  (1) 
S-OPLS

>  <s_lp_Variant>  (1) 
DiffSBDD_90-4

>  <s_m_source_file>  (1) 
generated_generic_title2_ligand_DiffSBDD_2026-06-23_prepared.sdf

>  <GenAI_Model>  (1) 
DiffSBDD

>  <Protein>  (1) 
generic_title2

$$$$
DiffSBDD_52
     RDKit          3D

  0  0  0  0  0  0  0  0  0  0999 V3000
M  V30 BEGIN CTAB
M  V30 COUNTS 51 54 0 0 1
M  V30 BEGIN ATOM
M  V30 1 C 12.237896 9.247613 -3.455865 0
M  V30 2 F 12.573812 7.535455 -1.734889 0
M  V30 3 C 9.062010 5.950953 -12.819371 0 CFG=1
M  V30 4 C 7.316049 5.190023 -10.616444 0
M  V30 5 C 8.452173 6.174016 -10.633801 0 CFG=2
M  V30 6 C 11.775426 6.792471 -3.764465 0
M  V30 7 C 10.959410 7.739316 -7.932298 0
M  V30 8 C 5.862807 6.368664 -12.406326 0
M  V30 9 C 12.185595 7.808491 -2.987676 0
M  V30 10 N 9.441389 5.481870 -11.474010 0 CFG=2 CHG=1
M  V30 11 C 11.131219 8.449396 -5.600564 0 CFG=2
M  V30 12 O 10.175357 5.590227 -13.607594 0
M  V30 13 C 5.714424 6.272336 -13.925040 0
M  V30 14 O 11.108052 8.780997 -6.986291 0
M  V30 15 C 12.178283 9.382654 -4.981490 0
M  V30 16 C 6.724312 5.156055 -12.054200 0 CFG=1
M  V30 17 C 7.057422 5.724071 -14.429231 0
M  V30 18 C 10.639184 8.382750 -9.288203 0
M  V30 19 C 11.319528 6.956433 -5.203968 0
M  V30 20 C 9.877550 6.175169 -10.271095 0 CFG=1
M  V30 21 C 10.740505 7.415140 -10.473403 0
M  V30 22 C 7.785227 5.143652 -13.199703 0 CFG=1
M  V30 23 H 11.401091 9.778443 -3.001319 0
M  V30 24 H 13.150529 9.708524 -3.084945 0
M  V30 25 H 8.916825 7.030240 -12.901827 0
M  V30 26 H 6.573032 5.523606 -9.893174 0
M  V30 27 H 7.661231 4.209269 -10.290296 0
M  V30 28 H 8.175453 7.174402 -10.953893 0
M  V30 29 H 11.765602 5.789224 -3.366451 0
M  V30 30 H 10.162622 7.054116 -7.643034 0
M  V30 31 H 11.889092 7.175692 -7.993839 0
M  V30 32 H 6.362256 7.304920 -12.158315 0
M  V30 33 H 4.926519 6.365860 -11.859116 0
M  V30 34 H 10.175401 8.752548 -5.186706 0
M  V30 35 H 10.688052 4.868533 -13.257438 0
M  V30 36 H 5.453640 7.228176 -14.383191 0
M  V30 37 H 4.923519 5.560316 -14.167311 0
M  V30 38 H 13.158186 9.191458 -5.415706 0
M  V30 39 H 11.940957 10.414730 -5.240668 0
M  V30 40 H 6.094371 4.267853 -12.140221 0
M  V30 41 H 7.645463 6.509051 -14.905178 0
M  V30 42 H 6.890414 4.951982 -15.182067 0
M  V30 43 H 11.320514 9.216217 -9.461030 0
M  V30 44 H 9.635229 8.806136 -9.247442 0
M  V30 45 H 10.372554 6.424698 -5.319515 0
M  V30 46 H 12.042714 6.435335 -5.832354 0
M  V30 47 H 10.175374 5.470965 -9.498879 0
M  V30 48 H 11.784514 7.146120 -10.624706 0
M  V30 49 H 10.431530 7.943487 -11.373922 0
M  V30 50 H 8.069790 4.108668 -13.395320 0
M  V30 51 H 9.324265 4.486074 -11.343780 0
M  V30 END ATOM
M  V30 BEGIN BOND
M  V30 1 1 5 4
M  V30 2 1 9 1
M  V30 3 1 9 2
M  V30 4 2 9 6
M  V30 5 1 10 3
M  V30 6 1 10 5
M  V30 7 1 12 3
M  V30 8 1 13 8
M  V30 9 1 14 7
M  V30 10 1 14 11
M  V30 11 1 15 1
M  V30 12 1 15 11
M  V30 13 1 16 4
M  V30 14 1 16 8
M  V30 15 1 17 13
M  V30 16 1 18 7
M  V30 17 1 19 6
M  V30 18 1 19 11
M  V30 19 1 20 5
M  V30 20 1 20 10
M  V30 21 1 21 18
M  V30 22 1 21 20
M  V30 23 1 22 3
M  V30 24 1 22 16
M  V30 25 1 22 17
M  V30 26 1 23 1
M  V30 27 1 24 1
M  V30 28 1 3 25 CFG=1
M  V30 29 1 26 4
M  V30 30 1 27 4
M  V30 31 1 5 28 CFG=3
M  V30 32 1 29 6
M  V30 33 1 30 7
M  V30 34 1 31 7
M  V30 35 1 32 8
M  V30 36 1 33 8
M  V30 37 1 11 34 CFG=1
M  V30 38 1 35 12
M  V30 39 1 36 13
M  V30 40 1 37 13
M  V30 41 1 38 15
M  V30 42 1 39 15
M  V30 43 1 16 40 CFG=1
M  V30 44 1 41 17
M  V30 45 1 42 17
M  V30 46 1 43 18
M  V30 47 1 44 18
M  V30 48 1 45 19
M  V30 49 1 46 19
M  V30 50 1 20 47 CFG=1
M  V30 51 1 48 21
M  V30 52 1 49 21
M  V30 53 1 22 50 CFG=3
M  V30 54 1 10 51 CFG=3
M  V30 END BOND
M  V30 END CTAB
M  END
>  <i_epik_Tot_Q>  (1) 
1

>  <i_epik_Tot_abs_Q>  (1) 
1

>  <i_i_glide_confnum>  (1) 
88

>  <i_i_glide_lignum>  (1) 
85

>  <i_i_glide_posenum>  (1) 
225

>  <i_i_glide_rotatable_bonds>  (1) 
6

>  <i_lp_mmshare_version>  (1) 
72125

>  <i_m_source_file_index>  (1) 
53

>  <i_f3d_flags>  (1) 
0

>  <num_sample>  (1) 
100

>  <b_lp_Chiralities_Consistent>  (1) 
1

>  <r_epik_Charging_Adjusted_Penalty>  (1) 
0.54296395038273226

>  <r_epik_Ionization_Penalty>  (1) 
0.53316988730295212

>  <r_epik_Ionization_Penalty_Charging>  (1) 
0.022916544562111445

>  <r_epik_Ionization_Penalty_Neutral>  (1) 
0.51025334274084067

>  <r_epik_State_Penalty>  (1) 
0.52004740582062081

>  <r_glide_ring_energy>  (1) 
0

>  <r_i_docking_score>  (1) 
-5.9702654694087158

>  <r_i_glide_ecoul>  (1) 
-7.3711344360602755

>  <r_i_glide_eff_state_penalty>  (1) 
0.52004740582062081

>  <r_i_glide_einternal>  (1) 
2.6478697318596112

>  <r_i_glide_emodel>  (1) 
-45.013392612653654

>  <r_i_glide_emodel_strain>  (1) 
2.1796308762652359

>  <r_i_glide_energy>  (1) 
-30.536952081808579

>  <r_i_glide_erotb>  (1) 
0.76914675799504084

>  <r_i_glide_esite>  (1) 
0

>  <r_i_glide_evdw>  (1) 
-23.165817645748302

>  <r_i_glide_gscore>  (1) 
-6.4903128752293364

>  <r_i_glide_gscore_strain>  (1) 
0

>  <r_i_glide_hbond>  (1) 
-0.23673302972915444

>  <r_i_glide_ligand_efficiency>  (1) 
-0.27137570315494164

>  <r_i_glide_ligand_efficiency_ln>  (1) 
-1.4593506514477148

>  <r_i_glide_ligand_efficiency_sa>  (1) 
-0.76040539362440773

>  <r_i_glide_lipo>  (1) 
-2.2384403973527394

>  <r_i_glide_metal>  (1) 
-0

>  <r_i_glide_rewards>  (1) 
-2.5203251584460262

>  <r_lp_Energy>  (1) 
32.431187000000001

>  <s_epik_Chemistry_Notes>  (1) 
This compound contains an acetal/aminal-like group ( X-CH(R)-Y where X, Y are N, S, or O) that may be acid/base labile, releasing an aldehyde.

>  <s_epik_cmdline>  (1) 
J2VwaWtfcHl0aG9uJywgJy1waHQnLCAnMS4wJywgJy1waCcsICc3LjQnLCAnLXRuJywgJzgnLCAnLW1hJywgJzUwMCcsICctaW1hZScsICc8aW5maWxlLm1hZT4nLCAnLW9tYWUnLCAnPG91dGZpbGUubWFlPic=

>  <s_epik_input>  (1) 
RkMxPVtDSF1bQ0gyXVtDQEBIXShbQ0gyXVtDSDJdMSlPW0NIMl1bQ0gyXVtDSDJdW0NAQEhdMk4oW0NASF0yMylbQ0BASF0oW09IXSlbQ0BIXTRbQ0BASF0oW0NIMl0zKVtDSDJdW0NIMl1bQ0gyXTQ=

>  <s_glide_docking_method>  (1) 
confgen

>  <s_i_glide_gridfile>  (1) 
gpcr_drd2_6luq_protein_autoprepared_prepared

>  <s_lp_Force_Field>  (1) 
S-OPLS

>  <s_lp_Variant>  (1) 
DiffSBDD_52-4

>  <s_m_source_file>  (1) 
generated_generic_title2_ligand_DiffSBDD_2026-06-23_prepared.sdf

>  <GenAI_Model>  (1) 
DiffSBDD

>  <Protein>  (1) 
generic_title2

$$$$
DiffSBDD_14
     RDKit          3D

  0  0  0  0  0  0  0  0  0  0999 V3000
M  V30 BEGIN CTAB
M  V30 COUNTS 46 47 0 0 1
M  V30 BEGIN ATOM
M  V30 1 N 9.583687 6.464673 -10.622383 0
M  V30 2 C 8.168905 3.129933 -13.394108 0
M  V30 3 N 8.886858 4.390244 -13.261160 0
M  V30 4 C 11.086141 9.199754 -5.818412 0
M  V30 5 C 8.808557 6.396043 -11.770529 0
M  V30 6 C 6.740659 3.394547 -12.890616 0
M  V30 7 C 10.780263 7.846075 -8.993852 0
M  V30 8 C 6.110153 4.698135 -10.785030 0
M  V30 9 C 11.735491 9.063741 -4.573293 0
M  V30 10 C 10.577474 8.060361 -6.477329 0
M  V30 11 C 11.877373 7.780335 -3.985026 0
M  V30 12 C 11.375416 6.647692 -4.660757 0
M  V30 13 C 10.727400 6.790143 -5.898379 0
M  V30 14 C 9.982356 7.615516 -10.255838 0
M  V30 15 O 8.523520 7.310462 -12.550220 0
M  V30 16 C 6.036484 5.801229 -13.031556 0
M  V30 17 C 9.866488 8.197181 -7.808596 0
M  V30 18 N 12.575401 6.443686 -1.986465 0
M  V30 19 N 12.512313 7.623059 -2.735751 0
M  V30 20 C 8.309033 4.967608 -12.050452 0 CFG=1
M  V30 21 C 6.778996 4.752256 -12.169540 0
M  V30 22 O 12.575235 8.790225 -1.965412 0
M  V30 23 H 8.175410 2.772925 -14.424154 0
M  V30 24 H 8.653246 2.374731 -12.772582 0
M  V30 25 H 9.887042 4.243258 -13.185125 0
M  V30 26 H 10.975461 10.177313 -6.263728 0
M  V30 27 H 6.040781 3.402726 -13.727076 0
M  V30 28 H 6.418106 2.587540 -12.232448 0
M  V30 29 H 11.514283 8.635032 -9.159818 0
M  V30 30 H 11.340665 6.935441 -8.777674 0
M  V30 31 H 6.602305 3.990185 -10.120184 0
M  V30 32 H 6.150752 5.670743 -10.294799 0
M  V30 33 H 5.062132 4.409538 -10.859728 0
M  V30 34 H 12.118562 9.939588 -4.072200 0
M  V30 35 H 11.481262 5.666236 -4.224908 0
M  V30 36 H 10.339592 5.919164 -6.405130 0
M  V30 37 H 9.767578 8.520112 -10.831942 0
M  V30 38 H 6.524306 5.943330 -13.996282 0
M  V30 39 H 5.008550 5.494426 -13.227143 0
M  V30 40 H 5.985015 6.770826 -12.535331 0
M  V30 41 H 9.011364 7.517354 -7.787691 0
M  V30 42 H 9.436572 9.190150 -7.918996 0
M  V30 43 H 12.390953 6.659952 -1.010052 0
M  V30 44 H 11.854031 5.801009 -2.309967 0
M  V30 45 H 8.654627 4.346511 -11.220056 0
M  V30 46 H 13.455636 9.126712 -2.053786 0
M  V30 END ATOM
M  V30 BEGIN BOND
M  V30 1 1 3 2
M  V30 2 1 5 1
M  V30 3 1 6 2
M  V30 4 2 9 4
M  V30 5 1 10 4
M  V30 6 1 11 9
M  V30 7 2 12 11
M  V30 8 2 13 10
M  V30 9 1 13 12
M  V30 10 2 14 1
M  V30 11 1 14 7
M  V30 12 2 15 5
M  V30 13 1 17 7
M  V30 14 1 17 10
M  V30 15 1 19 11
M  V30 16 1 19 18
M  V30 17 1 20 3
M  V30 18 1 20 5
M  V30 19 1 21 6
M  V30 20 1 21 8
M  V30 21 1 21 16
M  V30 22 1 21 20
M  V30 23 1 22 19
M  V30 24 1 23 2
M  V30 25 1 24 2
M  V30 26 1 25 3
M  V30 27 1 26 4
M  V30 28 1 27 6
M  V30 29 1 28 6
M  V30 30 1 29 7
M  V30 31 1 30 7
M  V30 32 1 31 8
M  V30 33 1 32 8
M  V30 34 1 33 8
M  V30 35 1 34 9
M  V30 36 1 35 12
M  V30 37 1 36 13
M  V30 38 1 37 14
M  V30 39 1 38 16
M  V30 40 1 39 16
M  V30 41 1 40 16
M  V30 42 1 41 17
M  V30 43 1 42 17
M  V30 44 1 43 18
M  V30 45 1 44 18
M  V30 46 1 20 45 CFG=1
M  V30 47 1 46 22
M  V30 END BOND
M  V30 END CTAB
M  END
>  <i_epik_Tot_Q>  (1) 
0

>  <i_epik_Tot_abs_Q>  (1) 
0

>  <i_i_glide_confnum>  (1) 
12

>  <i_i_glide_lignum>  (1) 
26

>  <i_i_glide_posenum>  (1) 
327

>  <i_i_glide_rotatable_bonds>  (1) 
7

>  <i_lp_mmshare_version>  (1) 
72125

>  <i_m_source_file_index>  (1) 
15

>  <i_f3d_flags>  (1) 
0

>  <num_sample>  (1) 
100

>  <b_lp_Chiralities_Consistent>  (1) 
1

>  <r_epik_Charging_Adjusted_Penalty>  (1) 
0.22580691505965048

>  <r_epik_Ionization_Penalty>  (1) 
0.22909364713476901

>  <r_epik_Ionization_Penalty_Charging>  (1) 
0

>  <r_epik_Ionization_Penalty_Neutral>  (1) 
0.22909364713476901

>  <r_epik_State_Penalty>  (1) 
0.22580691505965048

>  <r_glide_ring_energy>  (1) 
0

>  <r_i_docking_score>  (1) 
-5.9625309299643776

>  <r_i_glide_ecoul>  (1) 
-2.8074070644943006

>  <r_i_glide_eff_state_penalty>  (1) 
0.22580691505965048

>  <r_i_glide_einternal>  (1) 
3.4372883821412508

>  <r_i_glide_emodel>  (1) 
-55.263772419174543

>  <r_i_glide_emodel_strain>  (1) 
0.37746739396188644

>  <r_i_glide_energy>  (1) 
-42.467773925662684

>  <r_i_glide_erotb>  (1) 
1.1941897600298523

>  <r_i_glide_esite>  (1) 
-0.11867983029430421

>  <r_i_glide_evdw>  (1) 
-39.660366861168384

>  <r_i_glide_gscore>  (1) 
-6.1883378450240283

>  <r_i_glide_gscore_strain>  (1) 
0

>  <r_i_glide_hbond>  (1) 
-0.14614859722321372

>  <r_i_glide_ligand_efficiency>  (1) 
-0.27102413318019897

>  <r_i_glide_ligand_efficiency_ln>  (1) 
-1.4574600478833375

>  <r_i_glide_ligand_efficiency_sa>  (1) 
-0.75942028072770129

>  <r_i_glide_lipo>  (1) 
-2.1756704083410021

>  <r_i_glide_metal>  (1) 
-0

>  <r_i_glide_rewards>  (1) 
-2.5378993664627942

>  <r_lp_Energy>  (1) 
30.755288999999998

>  <s_epik_Chemistry_Notes>  (1) 
This compound has an imine and may undergo hydrolysis. This compound has a N-S or N-O group and may undergo hydrolysis at high or low pH.

>  <s_epik_cmdline>  (1) 
J2VwaWtfcHl0aG9uJywgJy1waHQnLCAnMS4wJywgJy1waCcsICc3LjQnLCAnLXRuJywgJzgnLCAnLW1hJywgJzUwMCcsICctaW1hZScsICc8aW5maWxlLm1hZT4nLCAnLW9tYWUnLCAnPG91dGZpbGUubWFlPic=

>  <s_epik_input>  (1) 
W0NIM11DMShbQ0gzXSlbQ0gyXVtDSDJdW05IXVtDQEhdMUMoPU8pL049W0NIXS9bQ0gyXVtDSDJdYzJbY0hdW2NIXWMoW2NIXVtjSF0yKU4oW05IMl0pW09IXQ==

>  <s_glide_docking_method>  (1) 
confgen

>  <s_i_glide_gridfile>  (1) 
gpcr_drd2_6luq_protein_autoprepared_prepared

>  <s_lp_Force_Field>  (1) 
S-OPLS

>  <s_lp_Variant>  (1) 
DiffSBDD_14-1

>  <s_m_source_file>  (1) 
generated_generic_title2_ligand_DiffSBDD_2026-06-23_prepared.sdf

>  <GenAI_Model>  (1) 
DiffSBDD

>  <Protein>  (1) 
generic_title2

$$$$
DiffSBDD_10
     RDKit          3D

  0  0  0  0  0  0  0  0  0  0999 V3000
M  V30 BEGIN CTAB
M  V30 COUNTS 55 59 0 0 1
M  V30 BEGIN ATOM
M  V30 1 S 9.524083 6.636407 -12.001440 0
M  V30 2 C 10.535995 7.190223 -9.578271 0
M  V30 3 C 7.874637 4.521683 -11.702468 0 CFG=1
M  V30 4 C 10.708704 7.773387 -6.275754 0
M  V30 5 C 5.375450 5.201558 -12.217791 0
M  V30 6 C 11.375382 7.795376 -4.902713 0
M  V30 7 O 8.462312 7.285313 -12.785035 0
M  V30 8 C 5.441448 4.175305 -13.374203 0
M  V30 9 C 11.968362 6.675508 -2.803034 0
M  V30 10 C 6.619245 1.928057 -14.057711 0
M  V30 11 C 7.940579 1.335705 -13.549795 0
M  V30 12 N 9.187021 5.127490 -11.519402 0 CHG=-1
M  V30 13 C 7.114945 4.434973 -10.395843 0
M  V30 14 C 6.389487 3.020976 -13.038928 0 CFG=1
M  V30 15 O 10.916820 6.790240 -12.449989 0
M  V30 16 C 11.375422 6.641757 -4.080792 0
M  V30 17 N 9.448173 7.325780 -10.435322 0
M  V30 18 C 6.674624 5.426276 -11.452751 0 CFG=1
M  V30 19 C 11.993168 8.976028 -4.417027 0
M  V30 20 C 9.274205 8.264856 -6.444481 0
M  V30 21 C 12.564043 7.856146 -2.334830 0
M  V30 22 O 11.609057 7.765381 -9.775031 0
M  V30 23 O 8.575349 2.363876 -12.785047 0
M  V30 24 C 11.185772 6.597176 -7.135574 0
M  V30 25 C 12.575411 9.002087 -3.142455 0
M  V30 26 C 10.321038 6.260606 -8.377228 0
M  V30 27 C 10.412269 9.111952 -6.920918 0
M  V30 28 C 7.801472 3.550946 -12.868909 0 CFG=2
M  V30 29 H 4.626491 4.886572 -11.497469 0
M  V30 30 H 5.037778 6.162637 -12.605777 0
M  V30 31 H 4.441575 3.800518 -13.585014 0
M  V30 32 H 5.784616 4.672963 -14.281394 0
M  V30 33 H 11.958851 5.792452 -2.181126 0
M  V30 34 H 5.814021 1.193011 -14.094240 0
M  V30 35 H 6.751396 2.351286 -15.054554 0
M  V30 36 H 7.760612 0.482994 -12.893179 0
M  V30 37 H 8.575410 1.000285 -14.369429 0
M  V30 38 H 6.451799 3.595056 -10.206437 0
M  V30 39 H 7.576324 4.850691 -9.501424 0
M  V30 40 H 6.060333 2.539591 -12.118556 0
M  V30 41 H 10.907626 5.732932 -4.426084 0
M  V30 42 H 8.497637 7.191393 -10.063241 0
M  V30 43 H 6.823718 6.465492 -11.185023 0
M  V30 44 H 12.017146 9.865985 -5.020025 0
M  V30 45 H 8.617366 7.923076 -7.236268 0
M  V30 46 H 8.733423 8.597871 -5.585026 0
M  V30 47 H 13.011587 7.883308 -1.353343 0
M  V30 48 H 12.214552 6.790566 -7.423592 0
M  V30 49 H 11.218582 5.688381 -6.539002 0
M  V30 50 H 13.029767 9.908364 -2.785029 0
M  V30 51 H 10.575366 5.259775 -8.719164 0
M  V30 52 H 9.264968 6.163349 -8.134446 0
M  V30 53 H 10.558398 10.042877 -6.385024 0
M  V30 54 H 10.543817 9.190194 -7.988884 0
M  V30 55 H 8.109079 4.082161 -13.772697 0
M  V30 END ATOM
M  V30 BEGIN BOND
M  V30 1 1 6 4
M  V30 2 2 7 1
M  V30 3 1 8 5
M  V30 4 1 11 10
M  V30 5 1 12 1
M  V30 6 1 3 12 CFG=1
M  V30 7 1 13 3
M  V30 8 1 14 8
M  V30 9 1 14 10
M  V30 10 2 15 1
M  V30 11 2 16 6
M  V30 12 1 16 9
M  V30 13 1 17 1
M  V30 14 1 17 2
M  V30 15 1 18 3
M  V30 16 1 18 5
M  V30 17 1 18 13
M  V30 18 1 19 6
M  V30 19 1 20 4
M  V30 20 2 21 9
M  V30 21 2 22 2
M  V30 22 1 23 11
M  V30 23 1 24 4
M  V30 24 2 25 19
M  V30 25 1 25 21
M  V30 26 1 26 2
M  V30 27 1 26 24
M  V30 28 1 27 4
M  V30 29 1 27 20
M  V30 30 1 28 3
M  V30 31 1 28 14
M  V30 32 1 28 23
M  V30 33 1 29 5
M  V30 34 1 30 5
M  V30 35 1 31 8
M  V30 36 1 32 8
M  V30 37 1 33 9
M  V30 38 1 34 10
M  V30 39 1 35 10
M  V30 40 1 36 11
M  V30 41 1 37 11
M  V30 42 1 38 13
M  V30 43 1 39 13
M  V30 44 1 14 40 CFG=1
M  V30 45 1 41 16
M  V30 46 1 42 17
M  V30 47 1 18 43 CFG=1
M  V30 48 1 44 19
M  V30 49 1 45 20
M  V30 50 1 46 20
M  V30 51 1 47 21
M  V30 52 1 48 24
M  V30 53 1 49 24
M  V30 54 1 50 25
M  V30 55 1 51 26
M  V30 56 1 52 26
M  V30 57 1 53 27
M  V30 58 1 54 27
M  V30 59 1 28 55 CFG=3
M  V30 END BOND
M  V30 END CTAB
M  END
>  <i_epik_Tot_Q>  (1) 
-1

>  <i_epik_Tot_abs_Q>  (1) 
1

>  <i_i_glide_confnum>  (1) 
14

>  <i_i_glide_lignum>  (1) 
19

>  <i_i_glide_posenum>  (1) 
294

>  <i_i_glide_rotatable_bonds>  (1) 
8

>  <i_lp_mmshare_version>  (1) 
72125

>  <i_m_source_file_index>  (1) 
11

>  <i_f3d_flags>  (1) 
0

>  <num_sample>  (1) 
100

>  <b_lp_Chiralities_Consistent>  (1) 
1

>  <r_epik_Charging_Adjusted_Penalty>  (1) 
0.69645471960127314

>  <r_epik_Ionization_Penalty>  (1) 
0.13608129319335216

>  <r_epik_Ionization_Penalty_Charging>  (1) 
0.023519382127027082

>  <r_epik_Ionization_Penalty_Neutral>  (1) 
0.11256191106632508

>  <r_epik_State_Penalty>  (1) 
0.67293533747424605

>  <r_glide_ring_energy>  (1) 
0

>  <r_i_docking_score>  (1) 
-5.9608825759623754

>  <r_i_glide_ecoul>  (1) 
-3.1207390797279366

>  <r_i_glide_eff_state_penalty>  (1) 
0.67293533747424605

>  <r_i_glide_einternal>  (1) 
17.463163914986104

>  <r_i_glide_emodel>  (1) 
-41.81656953325637

>  <r_i_glide_emodel_strain>  (1) 
2.4792873796346413

>  <r_i_glide_energy>  (1) 
-39.137832135428283

>  <r_i_glide_erotb>  (1) 
0.84406116630868921

>  <r_i_glide_esite>  (1) 
-0.15485036813667752

>  <r_i_glide_evdw>  (1) 
-36.01709305570035

>  <r_i_glide_gscore>  (1) 
-6.6338179134366211

>  <r_i_glide_gscore_strain>  (1) 
0

>  <r_i_glide_hbond>  (1) 
-0.16

>  <r_i_glide_ligand_efficiency>  (1) 
-0.2128886634272277

>  <r_i_glide_ligand_efficiency_ln>  (1) 
-1.3759467176496023

>  <r_i_glide_ligand_efficiency_sa>  (1) 
-0.6464553676004694

>  <r_i_glide_lipo>  (1) 
-3.3899163316312424

>  <r_i_glide_metal>  (1) 
-0

>  <r_i_glide_rewards>  (1) 
-1.5041468652331829

>  <r_lp_Energy>  (1) 
21.120514999999997

>  <s_epik_cmdline>  (1) 
J2VwaWtfcHl0aG9uJywgJy1waHQnLCAnMS4wJywgJy1waCcsICc3LjQnLCAnLXRuJywgJzgnLCAnLW1hJywgJzUwMCcsICctaW1hZScsICc8aW5maWxlLm1hZT4nLCAnLW9tYWUnLCAnPG91dGZpbGUubWFlPic=

>  <s_epik_input>  (1) 
W0NIMl0xW0NIMl1PW0NASF0yW0NASF0xW0NIMl1bQ0gyXVtDQEBIXShbQ0gyXTMpW0NAXTIzW05IXVMoPU8pKD1PKVtOSF1DKD1PKVtDSDJdW0NIMl1DNChbQ0gyXVtDSDJdNCljNVtjSF1bY0hdW2NIXVtjSF1bY0hdNQ==

>  <s_glide_docking_method>  (1) 
confgen

>  <s_i_glide_gridfile>  (1) 
gpcr_drd2_6luq_protein_autoprepared_prepared

>  <s_lp_Force_Field>  (1) 
S-OPLS

>  <s_lp_Variant>  (1) 
DiffSBDD_10-2

>  <s_m_source_file>  (1) 
generated_generic_title2_ligand_DiffSBDD_2026-06-23_prepared.sdf

>  <GenAI_Model>  (1) 
DiffSBDD

>  <Protein>  (1) 
generic_title2

$$$$
DiffSBDD_72
     RDKit          3D

  0  0  0  0  0  0  0  0  0  0999 V3000
M  V30 BEGIN CTAB
M  V30 COUNTS 47 49 0 0 1
M  V30 BEGIN ATOM
M  V30 1 C 11.823668 7.486305 -3.488847 0
M  V30 2 C 12.163338 8.226484 -7.784172 0
M  V30 3 C 9.637753 7.626586 -7.173160 0
M  V30 4 C 11.322014 8.496353 -5.478659 0
M  V30 5 C 11.959129 6.388585 -2.496433 0
M  V30 6 C 11.694379 9.595126 -4.744144 0
M  V30 7 C 6.516033 5.261439 -13.609805 0
M  V30 8 C 5.787517 5.279613 -12.269283 0
M  V30 9 C 10.911646 8.478986 -6.918332 0 CFG=1
M  V30 10 N 11.398664 7.306576 -4.738367 0
M  V30 11 C 9.352684 5.745494 -11.340099 0
M  V30 12 C 9.785998 7.707577 -9.763066 0 CFG=2
M  V30 13 C 9.552359 6.853740 -8.497427 0
M  V30 14 C 8.177272 5.059354 -12.057472 0 CFG=1
M  V30 15 C 6.873380 4.977150 -11.249804 0
M  V30 16 S 12.175432 9.157287 -3.125166 0
M  V30 17 O 7.826851 5.688368 -13.281904 0
M  V30 18 O 9.012081 8.015017 -11.984842 0 CHG=-1
M  V30 19 N 8.976257 7.163792 -10.934707 0 CFG=1 CHG=1
M  V30 20 C 11.277061 7.771620 -10.134160 0
M  V30 21 C 12.076340 8.714974 -9.238595 0
M  V30 22 H 12.986745 8.790035 -7.342667 0
M  V30 23 H 12.470141 7.190218 -7.718652 0
M  V30 24 H 9.518512 6.875484 -6.392531 0
M  V30 25 H 8.760583 8.266788 -7.066947 0
M  V30 26 H 12.574525 5.590269 -2.899129 0
M  V30 27 H 12.429012 6.756381 -1.585145 0
M  V30 28 H 10.975605 5.990208 -2.247729 0
M  V30 29 H 11.733671 10.622678 -5.066514 0
M  V30 30 H 6.052024 5.914456 -14.349400 0
M  V30 31 H 6.553661 4.250213 -14.018147 0
M  V30 32 H 5.375488 6.272270 -12.082300 0
M  V30 33 H 4.975287 4.556442 -12.233484 0
M  V30 34 H 10.618338 9.497306 -7.151474 0
M  V30 35 H 10.240520 5.808401 -11.970347 0
M  V30 36 H 9.599716 5.179031 -10.445172 0
M  V30 37 H 9.378995 8.709069 -9.613736 0
M  V30 38 H 8.568161 6.388694 -8.540030 0
M  V30 39 H 10.256456 6.021884 -8.463032 0
M  V30 40 H 8.482628 4.042650 -12.310797 0
M  V30 41 H 6.748636 3.990280 -10.808546 0
M  V30 42 H 6.830557 5.693040 -10.430264 0
M  V30 43 H 11.403252 8.039214 -11.178023 0
M  V30 44 H 11.721869 6.790253 -10.055672 0
M  V30 45 H 11.671848 9.726222 -9.286791 0
M  V30 46 H 13.088092 8.783867 -9.639662 0
M  V30 47 H 8.008555 7.104453 -10.532405 0
M  V30 END ATOM
M  V30 BEGIN BOND
M  V30 1 1 5 1
M  V30 2 2 6 4
M  V30 3 1 8 7
M  V30 4 1 9 2
M  V30 5 1 9 3
M  V30 6 1 9 4
M  V30 7 2 10 1
M  V30 8 1 10 4
M  V30 9 1 13 3
M  V30 10 1 13 12
M  V30 11 1 14 11
M  V30 12 1 15 8
M  V30 13 1 15 14
M  V30 14 1 16 1
M  V30 15 1 16 6
M  V30 16 1 17 7
M  V30 17 1 17 14
M  V30 18 1 19 11
M  V30 19 1 19 12
M  V30 20 1 19 18
M  V30 21 1 20 12
M  V30 22 1 21 2
M  V30 23 1 21 20
M  V30 24 1 22 2
M  V30 25 1 23 2
M  V30 26 1 24 3
M  V30 27 1 25 3
M  V30 28 1 26 5
M  V30 29 1 27 5
M  V30 30 1 28 5
M  V30 31 1 29 6
M  V30 32 1 30 7
M  V30 33 1 31 7
M  V30 34 1 32 8
M  V30 35 1 33 8
M  V30 36 1 9 34 CFG=3
M  V30 37 1 35 11
M  V30 38 1 36 11
M  V30 39 1 12 37 CFG=1
M  V30 40 1 38 13
M  V30 41 1 39 13
M  V30 42 1 14 40 CFG=3
M  V30 43 1 41 15
M  V30 44 1 42 15
M  V30 45 1 43 20
M  V30 46 1 44 20
M  V30 47 1 45 21
M  V30 48 1 46 21
M  V30 49 1 19 47 CFG=1
M  V30 END BOND
M  V30 END CTAB
M  END
>  <i_epik_Tot_Q>  (1) 
0

>  <i_epik_Tot_abs_Q>  (1) 
2

>  <i_i_glide_confnum>  (1) 
17

>  <i_i_glide_lignum>  (1) 
118

>  <i_i_glide_posenum>  (1) 
183

>  <i_i_glide_rotatable_bonds>  (1) 
4

>  <i_lp_mmshare_version>  (1) 
72125

>  <i_m_source_file_index>  (1) 
73

>  <i_f3d_flags>  (1) 
0

>  <num_sample>  (1) 
100

>  <b_lp_Chiralities_Consistent>  (1) 
1

>  <r_epik_Charging_Adjusted_Penalty>  (1) 
0.52782075658533367

>  <r_epik_Ionization_Penalty>  (1) 
0.0061787587503483845

>  <r_epik_Ionization_Penalty_Charging>  (1) 
0.0058496280333447418

>  <r_epik_Ionization_Penalty_Neutral>  (1) 
0.00032913071700364294

>  <r_epik_State_Penalty>  (1) 
0.52197112855198891

>  <r_glide_ring_energy>  (1) 
0

>  <r_i_docking_score>  (1) 
-5.9528853746537722

>  <r_i_glide_ecoul>  (1) 
-3.9928511068119992

>  <r_i_glide_eff_state_penalty>  (1) 
0.52197112855198891

>  <r_i_glide_einternal>  (1) 
9.3653931941913875

>  <r_i_glide_emodel>  (1) 
-44.991625608173237

>  <r_i_glide_emodel_strain>  (1) 
0.35040266377494333

>  <r_i_glide_energy>  (1) 
-37.084171746699568

>  <r_i_glide_erotb>  (1) 
0.76903323708162985

>  <r_i_glide_esite>  (1) 
-0.10000000000000001

>  <r_i_glide_evdw>  (1) 
-33.09132063988757

>  <r_i_glide_gscore>  (1) 
-6.4748565032057614

>  <r_i_glide_gscore_strain>  (1) 
0

>  <r_i_glide_hbond>  (1) 
0

>  <r_i_glide_ligand_efficiency>  (1) 
-0.28347073212637008

>  <r_i_glide_ligand_efficiency_ln>  (1) 
-1.4718388799456203

>  <r_i_glide_ligand_efficiency_sa>  (1) 
-0.78207425615989901

>  <r_i_glide_lipo>  (1) 
-2.6980902695439402

>  <r_i_glide_metal>  (1) 
-0

>  <r_i_glide_rewards>  (1) 
-2.192305772727273

>  <r_lp_Energy>  (1) 
15.897221

>  <s_epik_cmdline>  (1) 
J2VwaWtfcHl0aG9uJywgJy1waHQnLCAnMS4wJywgJy1waCcsICc3LjQnLCAnLXRuJywgJzgnLCAnLW1hJywgJzUwMCcsICctaW1hZScsICc8aW5maWxlLm1hZT4nLCAnLW9tYWUnLCAnPG91dGZpbGUubWFlPic=

>  <s_epik_input>  (1) 
W0NIM11jMW5jKFtjSF1zMSlbQ0BIXTJbQ0gyXVtDSDJdW0NIMl1bQ0BIXShbQ0gyXVtDSDJdMilOKFtPSF0pW0NIMl1bQ0BIXTNbQ0gyXVtDSDJdW0NIMl1PMw==

>  <s_glide_docking_method>  (1) 
confgen

>  <s_i_glide_gridfile>  (1) 
gpcr_drd2_6luq_protein_autoprepared_prepared

>  <s_lp_Force_Field>  (1) 
S-OPLS

>  <s_lp_Variant>  (1) 
DiffSBDD_72-2

>  <s_m_source_file>  (1) 
generated_generic_title2_ligand_DiffSBDD_2026-06-23_prepared.sdf

>  <GenAI_Model>  (1) 
DiffSBDD

>  <Protein>  (1) 
generic_title2

$$$$
DiffSBDD_14
     RDKit          3D

  0  0  0  0  0  0  0  0  0  0999 V3000
M  V30 BEGIN CTAB
M  V30 COUNTS 46 47 0 0 1
M  V30 BEGIN ATOM
M  V30 1 N 9.775407 6.629753 -10.470132 0
M  V30 2 C 8.207368 3.298624 -13.217127 0
M  V30 3 N 8.946217 4.550175 -13.135703 0
M  V30 4 C 11.140864 9.243949 -5.703893 0
M  V30 5 C 8.991807 6.543062 -11.608780 0
M  V30 6 C 6.806318 3.613143 -12.677472 0
M  V30 7 C 10.924400 8.051071 -8.854862 0
M  V30 8 C 6.438405 4.693218 -10.400468 0
M  V30 9 C 11.765852 9.115811 -4.449190 0
M  V30 10 C 10.628368 8.104525 -6.355467 0
M  V30 11 C 11.880073 7.846119 -3.841064 0
M  V30 12 C 11.375413 6.703566 -4.510000 0
M  V30 13 C 10.752392 6.837668 -5.760394 0
M  V30 14 C 10.175418 7.787552 -10.131158 0
M  V30 15 O 8.687820 7.453089 -12.385022 0
M  V30 16 C 6.113815 6.022661 -12.490849 0
M  V30 17 C 9.942107 8.238173 -7.692409 0
M  V30 18 N 12.661131 8.766240 -1.653142 0
M  V30 19 N 12.480388 7.730045 -2.572014 0
M  V30 20 C 8.482356 5.112110 -11.866538 0 CFG=1
M  V30 21 C 6.945916 4.894089 -11.837689 0
M  V30 22 O 12.356506 6.465682 -1.985028 0
M  V30 23 H 8.175410 2.913400 -14.236434 0
M  V30 24 H 8.697371 2.551942 -12.588510 0
M  V30 25 H 9.947207 4.390253 -13.152779 0
M  V30 26 H 11.048220 10.217057 -6.162717 0
M  V30 27 H 6.115818 3.757840 -13.509541 0
M  V30 28 H 6.416784 2.775137 -12.099252 0
M  V30 29 H 11.563861 8.926577 -8.969727 0
M  V30 30 H 11.578921 7.199520 -8.664052 0
M  V30 31 H 6.975394 3.911673 -9.874737 0
M  V30 32 H 6.575401 5.590227 -9.804800 0
M  V30 33 H 5.377750 4.440303 -10.385025 0
M  V30 34 H 12.148925 9.990231 -3.948701 0
M  V30 35 H 11.455918 5.726125 -4.060257 0
M  V30 36 H 10.360787 5.966454 -6.262848 0
M  V30 37 H 9.993283 8.673712 -10.745232 0
M  V30 38 H 6.473558 6.256373 -13.493552 0
M  V30 39 H 5.066566 5.736394 -12.577883 0
M  V30 40 H 6.139610 6.939636 -11.900067 0
M  V30 41 H 9.157590 7.478152 -7.731476 0
M  V30 42 H 9.418491 9.190224 -7.761974 0
M  V30 43 H 12.962804 8.378079 -0.762653 0
M  V30 44 H 13.375529 9.413565 -1.985045 0
M  V30 45 H 8.909494 4.481996 -11.082547 0
M  V30 46 H 13.157180 6.005726 -2.185935 0
M  V30 END ATOM
M  V30 BEGIN BOND
M  V30 1 1 3 2
M  V30 2 1 5 1
M  V30 3 1 6 2
M  V30 4 2 9 4
M  V30 5 1 10 4
M  V30 6 1 11 9
M  V30 7 2 12 11
M  V30 8 2 13 10
M  V30 9 1 13 12
M  V30 10 2 14 1
M  V30 11 1 14 7
M  V30 12 2 15 5
M  V30 13 1 17 7
M  V30 14 1 17 10
M  V30 15 1 19 11
M  V30 16 1 19 18
M  V30 17 1 20 3
M  V30 18 1 20 5
M  V30 19 1 21 6
M  V30 20 1 21 8
M  V30 21 1 21 16
M  V30 22 1 21 20
M  V30 23 1 22 19
M  V30 24 1 23 2
M  V30 25 1 24 2
M  V30 26 1 25 3
M  V30 27 1 26 4
M  V30 28 1 27 6
M  V30 29 1 28 6
M  V30 30 1 29 7
M  V30 31 1 30 7
M  V30 32 1 31 8
M  V30 33 1 32 8
M  V30 34 1 33 8
M  V30 35 1 34 9
M  V30 36 1 35 12
M  V30 37 1 36 13
M  V30 38 1 37 14
M  V30 39 1 38 16
M  V30 40 1 39 16
M  V30 41 1 40 16
M  V30 42 1 41 17
M  V30 43 1 42 17
M  V30 44 1 43 18
M  V30 45 1 44 18
M  V30 46 1 20 45 CFG=1
M  V30 47 1 46 22
M  V30 END BOND
M  V30 END CTAB
M  END
>  <i_epik_Tot_Q>  (1) 
0

>  <i_epik_Tot_abs_Q>  (1) 
0

>  <i_i_glide_confnum>  (1) 
96

>  <i_i_glide_lignum>  (1) 
26

>  <i_i_glide_posenum>  (1) 
276

>  <i_i_glide_rotatable_bonds>  (1) 
7

>  <i_lp_mmshare_version>  (1) 
72125

>  <i_m_source_file_index>  (1) 
15

>  <i_f3d_flags>  (1) 
0

>  <num_sample>  (1) 
100

>  <b_lp_Chiralities_Consistent>  (1) 
1

>  <r_epik_Charging_Adjusted_Penalty>  (1) 
0.22580691505965048

>  <r_epik_Ionization_Penalty>  (1) 
0.22909364713476901

>  <r_epik_Ionization_Penalty_Charging>  (1) 
0

>  <r_epik_Ionization_Penalty_Neutral>  (1) 
0.22909364713476901

>  <r_epik_State_Penalty>  (1) 
0.22580691505965048

>  <r_glide_ring_energy>  (1) 
0

>  <r_i_docking_score>  (1) 
-5.9501425878374921

>  <r_i_glide_ecoul>  (1) 
-1.9579830638458879

>  <r_i_glide_eff_state_penalty>  (1) 
0.22580691505965048

>  <r_i_glide_einternal>  (1) 
3.2116331555563757

>  <r_i_glide_emodel>  (1) 
-54.429667138102005

>  <r_i_glide_emodel_strain>  (1) 
0.16529095833677587

>  <r_i_glide_energy>  (1) 
-41.338476890874382

>  <r_i_glide_erotb>  (1) 
1.1941897600298523

>  <r_i_glide_esite>  (1) 
-0.10542537774315947

>  <r_i_glide_evdw>  (1) 
-39.380493827028495

>  <r_i_glide_gscore>  (1) 
-6.1759495028971427

>  <r_i_glide_gscore_strain>  (1) 
0

>  <r_i_glide_hbond>  (1) 
-0.31867830936715502

>  <r_i_glide_ligand_efficiency>  (1) 
-0.27046102671988598

>  <r_i_glide_ligand_efficiency_ln>  (1) 
-1.4544318851917681

>  <r_i_glide_ligand_efficiency_sa>  (1) 
-0.75784243427855824

>  <r_i_glide_lipo>  (1) 
-2.2055196687953491

>  <r_i_glide_metal>  (1) 
-0

>  <r_i_glide_rewards>  (1) 
-2.477793756093023

>  <r_lp_Energy>  (1) 
30.755288999999998

>  <s_epik_Chemistry_Notes>  (1) 
This compound has an imine and may undergo hydrolysis. This compound has a N-S or N-O group and may undergo hydrolysis at high or low pH.

>  <s_epik_cmdline>  (1) 
J2VwaWtfcHl0aG9uJywgJy1waHQnLCAnMS4wJywgJy1waCcsICc3LjQnLCAnLXRuJywgJzgnLCAnLW1hJywgJzUwMCcsICctaW1hZScsICc8aW5maWxlLm1hZT4nLCAnLW9tYWUnLCAnPG91dGZpbGUubWFlPic=

>  <s_epik_input>  (1) 
W0NIM11DMShbQ0gzXSlbQ0gyXVtDSDJdW05IXVtDQEhdMUMoPU8pL049W0NIXS9bQ0gyXVtDSDJdYzJbY0hdW2NIXWMoW2NIXVtjSF0yKU4oW05IMl0pW09IXQ==

>  <s_glide_docking_method>  (1) 
confgen

>  <s_i_glide_gridfile>  (1) 
gpcr_drd2_6luq_protein_autoprepared_prepared

>  <s_lp_Force_Field>  (1) 
S-OPLS

>  <s_lp_Variant>  (1) 
DiffSBDD_14-1

>  <s_m_source_file>  (1) 
generated_generic_title2_ligand_DiffSBDD_2026-06-23_prepared.sdf

>  <GenAI_Model>  (1) 
DiffSBDD

>  <Protein>  (1) 
generic_title2

$$$$
DiffSBDD_14
     RDKit          3D

  0  0  0  0  0  0  0  0  0  0999 V3000
M  V30 BEGIN CTAB
M  V30 COUNTS 46 47 0 0 1
M  V30 BEGIN ATOM
M  V30 1 N 9.467035 6.681704 -11.336888 0
M  V30 2 C 8.182877 4.357872 -14.543535 0
M  V30 3 N 9.053425 4.978954 -13.560437 0
M  V30 4 C 11.374552 9.309619 -5.946288 0
M  V30 5 C 8.975412 5.408107 -11.060797 0
M  V30 6 C 6.762773 4.697024 -14.078595 0
M  V30 7 C 10.102845 7.157752 -8.967500 0
M  V30 8 C 5.977739 3.990216 -11.758598 0
M  V30 9 C 11.775410 9.137855 -4.607214 0
M  V30 10 C 10.969168 8.198349 -6.714215 0
M  V30 11 C 11.778738 7.852739 -4.025023 0
M  V30 12 C 11.375407 6.736633 -4.797002 0
M  V30 13 C 10.970343 6.909242 -6.134878 0
M  V30 14 C 9.952678 7.477297 -10.457625 0
M  V30 15 O 8.975368 4.790227 -9.995123 0
M  V30 16 C 6.390875 6.406616 -12.266466 0
M  V30 17 C 10.532622 8.402317 -8.164544 0
M  V30 18 N 12.673391 8.675693 -1.826307 0
M  V30 19 N 12.175409 7.691858 -2.679851 0
M  V30 20 C 8.363976 4.710384 -12.294192 0 CFG=1
M  V30 21 C 6.857322 4.963560 -12.564413 0
M  V30 22 O 12.532340 6.390146 -2.323823 0
M  V30 23 H 8.394318 4.715633 -15.551544 0
M  V30 24 H 8.331557 3.277309 -14.529238 0
M  V30 25 H 9.993551 4.600779 -13.585019 0
M  V30 26 H 11.375415 10.296762 -6.384983 0
M  V30 27 H 6.406571 5.578977 -14.613065 0
M  V30 28 H 6.075102 3.886674 -14.321018 0
M  V30 29 H 10.855523 6.375853 -8.874972 0
M  V30 30 H 9.161482 6.790516 -8.555534 0
M  V30 31 H 6.215724 2.950703 -11.985039 0
M  V30 32 H 6.104890 4.134260 -10.684469 0
M  V30 33 H 4.923988 4.140181 -11.987778 0
M  V30 34 H 12.080644 9.990236 -4.026527 0
M  V30 35 H 11.369492 5.748273 -4.363602 0
M  V30 36 H 10.659859 6.051646 -6.711100 0
M  V30 37 H 10.305072 8.471213 -10.738374 0
M  V30 38 H 7.033129 7.144789 -12.747945 0
M  V30 39 H 5.375405 6.577005 -12.622318 0
M  V30 40 H 6.389489 6.611416 -11.195951 0
M  V30 41 H 9.702078 9.109826 -8.165479 0
M  V30 42 H 11.363043 8.897382 -8.670884 0
M  V30 43 H 13.358928 9.246521 -2.318122 0
M  V30 44 H 11.910758 9.277208 -1.520597 0
M  V30 45 H 8.487300 3.641790 -12.105173 0
M  V30 46 H 11.758416 6.003299 -1.940341 0
M  V30 END ATOM
M  V30 BEGIN BOND
M  V30 1 1 3 2
M  V30 2 1 5 1
M  V30 3 1 6 2
M  V30 4 2 9 4
M  V30 5 1 10 4
M  V30 6 1 11 9
M  V30 7 2 12 11
M  V30 8 2 13 10
M  V30 9 1 13 12
M  V30 10 2 14 1
M  V30 11 1 14 7
M  V30 12 2 15 5
M  V30 13 1 17 7
M  V30 14 1 17 10
M  V30 15 1 19 11
M  V30 16 1 19 18
M  V30 17 1 20 3
M  V30 18 1 20 5
M  V30 19 1 21 6
M  V30 20 1 21 8
M  V30 21 1 21 16
M  V30 22 1 21 20
M  V30 23 1 22 19
M  V30 24 1 23 2
M  V30 25 1 24 2
M  V30 26 1 25 3
M  V30 27 1 26 4
M  V30 28 1 27 6
M  V30 29 1 28 6
M  V30 30 1 29 7
M  V30 31 1 30 7
M  V30 32 1 31 8
M  V30 33 1 32 8
M  V30 34 1 33 8
M  V30 35 1 34 9
M  V30 36 1 35 12
M  V30 37 1 36 13
M  V30 38 1 37 14
M  V30 39 1 38 16
M  V30 40 1 39 16
M  V30 41 1 40 16
M  V30 42 1 41 17
M  V30 43 1 42 17
M  V30 44 1 43 18
M  V30 45 1 44 18
M  V30 46 1 20 45 CFG=1
M  V30 47 1 46 22
M  V30 END BOND
M  V30 END CTAB
M  END
>  <i_epik_Tot_Q>  (1) 
0

>  <i_epik_Tot_abs_Q>  (1) 
0

>  <i_i_glide_confnum>  (1) 
120

>  <i_i_glide_lignum>  (1) 
27

>  <i_i_glide_posenum>  (1) 
368

>  <i_i_glide_rotatable_bonds>  (1) 
7

>  <i_lp_mmshare_version>  (1) 
72125

>  <i_m_source_file_index>  (1) 
15

>  <i_f3d_flags>  (1) 
0

>  <num_sample>  (1) 
100

>  <b_lp_Chiralities_Consistent>  (1) 
1

>  <r_epik_Charging_Adjusted_Penalty>  (1) 
0.22580691505965048

>  <r_epik_Ionization_Penalty>  (1) 
0.22909364713476901

>  <r_epik_Ionization_Penalty_Charging>  (1) 
0

>  <r_epik_Ionization_Penalty_Neutral>  (1) 
0.22909364713476901

>  <r_epik_State_Penalty>  (1) 
0.22580691505965048

>  <r_glide_ring_energy>  (1) 
0

>  <r_i_docking_score>  (1) 
-5.9419534090146477

>  <r_i_glide_ecoul>  (1) 
-3.4639156802451572

>  <r_i_glide_eff_state_penalty>  (1) 
0.22580691505965048

>  <r_i_glide_einternal>  (1) 
5.74984279401738

>  <r_i_glide_emodel>  (1) 
-56.046018506219554

>  <r_i_glide_emodel_strain>  (1) 
0

>  <r_i_glide_energy>  (1) 
-43.61079573784982

>  <r_i_glide_erotb>  (1) 
1.1941897600298523

>  <r_i_glide_esite>  (1) 
-0.079578436377176362

>  <r_i_glide_evdw>  (1) 
-40.146880057604662

>  <r_i_glide_gscore>  (1) 
-6.1677603240742984

>  <r_i_glide_gscore_strain>  (1) 
0

>  <r_i_glide_hbond>  (1) 
-0.19264296653594265

>  <r_i_glide_ligand_efficiency>  (1) 
-0.27008879131884761

>  <r_i_glide_ligand_efficiency_ln>  (1) 
-1.4524301511799098

>  <r_i_glide_ligand_efficiency_sa>  (1) 
-0.75679941604458645

>  <r_i_glide_lipo>  (1) 
-2.1244936731502504

>  <r_i_glide_metal>  (1) 
-0

>  <r_i_glide_rewards>  (1) 
-2.4383036531237741

>  <r_lp_Energy>  (1) 
34.090119999999999

>  <s_epik_Chemistry_Notes>  (1) 
This compound has an imine and may undergo hydrolysis. This compound has a N-S or N-O group and may undergo hydrolysis at high or low pH.

>  <s_epik_cmdline>  (1) 
J2VwaWtfcHl0aG9uJywgJy1waHQnLCAnMS4wJywgJy1waCcsICc3LjQnLCAnLXRuJywgJzgnLCAnLW1hJywgJzUwMCcsICctaW1hZScsICc8aW5maWxlLm1hZT4nLCAnLW9tYWUnLCAnPG91dGZpbGUubWFlPic=

>  <s_epik_input>  (1) 
W0NIM11DMShbQ0gzXSlbQ0gyXVtDSDJdW05IXVtDQEhdMUMoPU8pL049W0NIXVxbQ0gyXVtDSDJdYzJbY0hdW2NIXWMoW2NIXVtjSF0yKU4oW05IMl0pW09IXQ==

>  <s_glide_docking_method>  (1) 
confgen

>  <s_i_glide_gridfile>  (1) 
gpcr_drd2_6luq_protein_autoprepared_prepared

>  <s_lp_Force_Field>  (1) 
S-OPLS

>  <s_lp_Variant>  (1) 
DiffSBDD_14-2

>  <s_m_source_file>  (1) 
generated_generic_title2_ligand_DiffSBDD_2026-06-23_prepared.sdf

>  <GenAI_Model>  (1) 
DiffSBDD

>  <Protein>  (1) 
generic_title2

$$$$
DiffSBDD_22
     RDKit          3D

  0  0  0  0  0  0  0  0  0  0999 V3000
M  V30 BEGIN CTAB
M  V30 COUNTS 29 30 0 0 1
M  V30 BEGIN ATOM
M  V30 1 C 10.290842 7.059129 -8.583552 0 CFG=1
M  V30 2 N 8.975413 6.389842 -8.564602 0 CHG=1
M  V30 3 C 8.673871 4.892858 -10.551451 0
M  V30 4 C 12.227464 7.568361 -2.663007 0
M  V30 5 C 11.152271 7.242582 -7.354407 0 CFG=2
M  V30 6 C 11.775408 6.683558 -3.605550 0
M  V30 7 C 8.944716 4.992722 -9.043277 0
M  V30 8 C 10.836165 6.585548 -6.025893 0
M  V30 9 C 11.375419 7.321900 -4.834622 0
M  V30 10 O 10.718921 7.194203 -9.918254 0
M  V30 11 C 10.291163 8.378680 -7.873363 0
M  V30 12 S 12.175411 9.190218 -3.248196 0
M  V30 13 C 11.547258 8.688408 -4.781763 0
M  V30 14 H 8.638586 6.387377 -7.612972 0
M  V30 15 H 8.607040 3.852415 -10.863884 0
M  V30 16 H 7.737982 5.384362 -10.820554 0
M  V30 17 H 9.469414 5.344474 -11.141197 0
M  V30 18 H 12.583103 7.359765 -1.665550 0
M  V30 19 H 12.219754 7.336788 -7.543124 0
M  V30 20 H 11.713746 5.614479 -3.463993 0
M  V30 21 H 9.871239 4.482511 -8.778607 0
M  V30 22 H 8.139503 4.486746 -8.509139 0
M  V30 23 H 9.757401 6.459344 -5.920414 0
M  V30 24 H 11.272722 5.591027 -6.055256 0
M  V30 25 H 10.835878 8.113126 -10.110033 0
M  V30 26 H 10.837027 9.190509 -8.335462 0
M  V30 27 H 9.413906 8.665564 -7.292875 0
M  V30 28 H 11.337564 9.421108 -5.547058 0
M  V30 29 H 8.295098 6.946611 -9.090266 0
M  V30 END ATOM
M  V30 BEGIN BOND
M  V30 1 1 2 1
M  V30 2 1 5 1
M  V30 3 2 6 4
M  V30 4 1 7 2
M  V30 5 1 7 3
M  V30 6 1 8 5
M  V30 7 1 9 6
M  V30 8 1 9 8
M  V30 9 1 1 10 CFG=3
M  V30 10 1 11 1
M  V30 11 1 11 5
M  V30 12 1 12 4
M  V30 13 2 13 9
M  V30 14 1 13 12
M  V30 15 1 14 2
M  V30 16 1 15 3
M  V30 17 1 16 3
M  V30 18 1 17 3
M  V30 19 1 18 4
M  V30 20 1 5 19 CFG=3
M  V30 21 1 20 6
M  V30 22 1 21 7
M  V30 23 1 22 7
M  V30 24 1 23 8
M  V30 25 1 24 8
M  V30 26 1 25 10
M  V30 27 1 26 11
M  V30 28 1 27 11
M  V30 29 1 28 13
M  V30 30 1 29 2
M  V30 END BOND
M  V30 END CTAB
M  END
>  <i_epik_Tot_Q>  (1) 
1

>  <i_epik_Tot_abs_Q>  (1) 
1

>  <i_i_glide_confnum>  (1) 
12

>  <i_i_glide_lignum>  (1) 
40

>  <i_i_glide_posenum>  (1) 
76

>  <i_i_glide_rotatable_bonds>  (1) 
5

>  <i_lp_mmshare_version>  (1) 
72125

>  <i_m_source_file_index>  (1) 
23

>  <i_f3d_flags>  (1) 
0

>  <num_sample>  (1) 
100

>  <b_lp_Chiralities_Consistent>  (1) 
1

>  <r_epik_Charging_Adjusted_Penalty>  (1) 
1.3614070434525585

>  <r_epik_Ionization_Penalty>  (1) 
0.68090079983986818

>  <r_epik_Ionization_Penalty_Charging>  (1) 
0.68070352172627924

>  <r_epik_Ionization_Penalty_Neutral>  (1) 
0.00019727811358890825

>  <r_epik_State_Penalty>  (1) 
0.68070352172627924

>  <r_glide_ring_energy>  (1) 
0

>  <r_i_docking_score>  (1) 
-5.9402604273264599

>  <r_i_glide_ecoul>  (1) 
-7.3033303391252549

>  <r_i_glide_eff_state_penalty>  (1) 
0.68070352172627924

>  <r_i_glide_einternal>  (1) 
2.7379273607677024

>  <r_i_glide_emodel>  (1) 
-48.403884519451509

>  <r_i_glide_emodel_strain>  (1) 
0.40475014845371859

>  <r_i_glide_energy>  (1) 
-31.028642840936108

>  <r_i_glide_erotb>  (1) 
0.8697133986629777

>  <r_i_glide_esite>  (1) 
-0.14182264673728825

>  <r_i_glide_evdw>  (1) 
-23.725312501810855

>  <r_i_glide_gscore>  (1) 
-6.6209639490527392

>  <r_i_glide_gscore_strain>  (1) 
0

>  <r_i_glide_hbond>  (1) 
-0.20000000000000001

>  <r_i_glide_ligand_efficiency>  (1) 
-0.45694310979434305

>  <r_i_glide_ligand_efficiency_ln>  (1) 
-1.666295880162598

>  <r_i_glide_ligand_efficiency_sa>  (1) 
-1.0744261843744336

>  <r_i_glide_lipo>  (1) 
-1.8602118183193281

>  <r_i_glide_metal>  (1) 
-0

>  <r_i_glide_rewards>  (1) 
-3.0068777066997687

>  <r_lp_Energy>  (1) 
5.1831209999999999

>  <s_epik_cmdline>  (1) 
J2VwaWtfcHl0aG9uJywgJy1waHQnLCAnMS4wJywgJy1waCcsICc3LjQnLCAnLXRuJywgJzgnLCAnLW1hJywgJzUwMCcsICctaW1hZScsICc8aW5maWxlLm1hZT4nLCAnLW9tYWUnLCAnPG91dGZpbGUubWFlPic=

>  <s_epik_input>  (1) 
W0NIM11bQ0gyXVtOSF1bQ0BdMShbT0hdKVtDQEBIXShbQ0gyXTEpW0NIMl1jMltjSF1bY0hdc1tjSF0y

>  <s_glide_docking_method>  (1) 
confgen

>  <s_i_glide_gridfile>  (1) 
gpcr_drd2_6luq_protein_autoprepared_prepared

>  <s_lp_Force_Field>  (1) 
S-OPLS

>  <s_lp_Variant>  (1) 
DiffSBDD_22-2

>  <s_m_source_file>  (1) 
generated_generic_title2_ligand_DiffSBDD_2026-06-23_prepared.sdf

>  <GenAI_Model>  (1) 
DiffSBDD

>  <Protein>  (1) 
generic_title2

$$$$
DiffSBDD_67
     RDKit          3D

  0  0  0  0  0  0  0  0  0  0999 V3000
M  V30 BEGIN CTAB
M  V30 COUNTS 67 69 0 0 1
M  V30 BEGIN ATOM
M  V30 1 C 5.978527 6.126770 -18.655428 0
M  V30 2 C 7.522650 5.095296 -15.326398 0
M  V30 3 C 7.422731 6.017907 -20.759679 0
M  V30 4 C 6.844514 5.064684 -10.783160 0
M  V30 5 F 4.389862 7.845116 -19.180051 0
M  V30 6 C 9.628513 6.342505 -10.003416 0
M  V30 7 C 9.868709 7.614890 -7.289507 0
M  V30 8 C 10.985199 9.139811 -5.658129 0
M  V30 9 C 10.527779 7.587598 -9.788176 0 CFG=2
M  V30 10 C 11.831378 9.033980 -8.110388 0
M  V30 11 C 5.850014 6.903738 -15.940921 0
M  V30 12 C 6.692529 5.833614 -16.331254 0
M  V30 13 C 12.130453 9.389998 -6.638797 0
M  V30 14 C 6.764665 3.442804 -12.620610 0
M  V30 15 C 5.075731 7.575093 -16.904771 0
M  V30 16 C 11.759423 7.590247 -10.714311 0
M  V30 17 C 5.136998 7.190222 -18.258987 0
M  V30 18 C 7.873123 4.478378 -12.848618 0 CFG=2
M  V30 19 C 5.971789 3.973929 -11.416140 0
M  V30 20 O 8.265744 4.159492 -15.621142 0
M  V30 21 C 6.754736 5.451365 -17.689444 0
M  V30 22 N 8.140349 5.003176 -11.490504 0 CFG=1 CHG=1
M  V30 23 F 8.408165 5.299866 -20.220671 0
M  V30 24 C 5.579630 4.260811 -20.373765 0
M  V30 25 C 8.996526 6.211057 -11.399702 0
M  V30 26 C 6.051023 5.709652 -20.126980 0
M  V30 27 C 11.012107 7.729256 -8.316789 0
M  V30 28 C 7.414807 5.561490 -13.862006 0
M  V30 29 F 6.370022 3.351893 -19.804268 0
M  V30 30 C 10.396556 7.751241 -5.868080 0
M  V30 31 H 7.422158 5.799088 -21.827509 0
M  V30 32 H 7.686208 7.068974 -20.637664 0
M  V30 33 H 6.376440 6.038157 -10.931343 0
M  V30 34 H 6.975363 4.916652 -9.710342 0
M  V30 35 H 8.785790 6.390219 -9.318602 0
M  V30 36 H 10.175116 5.438696 -9.738282 0
M  V30 37 H 9.095000 8.359286 -7.486453 0
M  V30 38 H 9.387782 6.639471 -7.337569 0
M  V30 39 H 11.341848 9.247769 -4.633250 0
M  V30 40 H 10.212444 9.889534 -5.793470 0
M  V30 41 H 9.918098 8.459118 -10.032735 0
M  V30 42 H 12.795877 8.923562 -8.606793 0
M  V30 43 H 11.375413 9.868073 -8.631869 0
M  V30 44 H 5.793720 7.213293 -14.910693 0
M  V30 45 H 12.975408 8.790231 -6.351240 0
M  V30 46 H 12.454815 10.419994 -6.518159 0
M  V30 47 H 6.133204 3.285282 -13.495767 0
M  V30 48 H 7.211497 2.477149 -12.385026 0
M  V30 49 H 4.433744 8.389833 -16.605320 0
M  V30 50 H 12.536460 6.957027 -10.296635 0
M  V30 51 H 11.551988 7.261527 -11.730132 0
M  V30 52 H 12.194275 8.585918 -10.784982 0
M  V30 53 H 8.788749 3.992859 -13.192564 0
M  V30 54 H 5.013641 4.390716 -11.729391 0
M  V30 55 H 5.765322 3.176082 -10.703217 0
M  V30 56 H 7.399111 4.637482 -17.990301 0
M  V30 57 H 4.575238 4.098924 -19.984952 0
M  V30 58 H 5.562086 4.031069 -21.439177 0
M  V30 59 H 9.776330 6.116801 -12.154197 0
M  V30 60 H 8.419338 7.105872 -11.638360 0
M  V30 61 H 5.340522 6.330038 -20.672352 0
M  V30 62 H 11.682235 6.895179 -8.103995 0
M  V30 63 H 8.018326 6.464286 -13.779719 0
M  V30 64 H 6.390320 5.829123 -13.611709 0
M  V30 65 H 11.143295 6.983328 -5.660743 0
M  V30 66 H 9.577493 7.576520 -5.185019 0
M  V30 67 H 8.657154 4.263789 -11.035291 0
M  V30 END ATOM
M  V30 BEGIN BOND
M  V30 1 1 9 6
M  V30 2 1 12 2
M  V30 3 1 12 11
M  V30 4 1 13 8
M  V30 5 1 13 10
M  V30 6 2 15 11
M  V30 7 1 16 9
M  V30 8 2 17 1
M  V30 9 1 17 5
M  V30 10 1 17 15
M  V30 11 1 18 14
M  V30 12 1 19 4
M  V30 13 1 19 14
M  V30 14 2 20 2
M  V30 15 1 21 1
M  V30 16 2 21 12
M  V30 17 1 22 4
M  V30 18 1 22 18
M  V30 19 1 23 3
M  V30 20 1 25 6
M  V30 21 1 25 22
M  V30 22 1 26 1
M  V30 23 1 26 3
M  V30 24 1 26 24
M  V30 25 1 27 7
M  V30 26 1 27 9
M  V30 27 1 27 10
M  V30 28 1 28 2
M  V30 29 1 28 18
M  V30 30 1 29 24
M  V30 31 1 30 7
M  V30 32 1 30 8
M  V30 33 1 31 3
M  V30 34 1 32 3
M  V30 35 1 33 4
M  V30 36 1 34 4
M  V30 37 1 35 6
M  V30 38 1 36 6
M  V30 39 1 37 7
M  V30 40 1 38 7
M  V30 41 1 39 8
M  V30 42 1 40 8
M  V30 43 1 9 41 CFG=3
M  V30 44 1 42 10
M  V30 45 1 43 10
M  V30 46 1 44 11
M  V30 47 1 45 13
M  V30 48 1 46 13
M  V30 49 1 47 14
M  V30 50 1 48 14
M  V30 51 1 49 15
M  V30 52 1 50 16
M  V30 53 1 51 16
M  V30 54 1 52 16
M  V30 55 1 18 53 CFG=3
M  V30 56 1 54 19
M  V30 57 1 55 19
M  V30 58 1 56 21
M  V30 59 1 57 24
M  V30 60 1 58 24
M  V30 61 1 59 25
M  V30 62 1 60 25
M  V30 63 1 61 26
M  V30 64 1 62 27
M  V30 65 1 63 28
M  V30 66 1 64 28
M  V30 67 1 65 30
M  V30 68 1 66 30
M  V30 69 1 22 67 CFG=1
M  V30 END BOND
M  V30 END CTAB
M  END
>  <i_epik_Tot_Q>  (1) 
1

>  <i_epik_Tot_abs_Q>  (1) 
1

>  <i_i_glide_confnum>  (1) 
72

>  <i_i_glide_lignum>  (1) 
109

>  <i_i_glide_posenum>  (1) 
307

>  <i_i_glide_rotatable_bonds>  (1) 
10

>  <i_lp_mmshare_version>  (1) 
72125

>  <i_m_source_file_index>  (1) 
68

>  <i_f3d_flags>  (1) 
0

>  <num_sample>  (1) 
100

>  <b_lp_Chiralities_Consistent>  (1) 
1

>  <r_epik_Charging_Adjusted_Penalty>  (1) 
0.0091991127420811905

>  <r_epik_Ionization_Penalty>  (1) 
0.0045995563710408641

>  <r_epik_Ionization_Penalty_Charging>  (1) 
0.0045995563710406013

>  <r_epik_Ionization_Penalty_Neutral>  (1) 
2.6311653613664267e-16

>  <r_epik_State_Penalty>  (1) 
0.0045995563710405883

>  <r_glide_ring_energy>  (1) 
0

>  <r_i_docking_score>  (1) 
-5.9385448524892306

>  <r_i_glide_ecoul>  (1) 
-2.7593085544590705

>  <r_i_glide_eff_state_penalty>  (1) 
0.0045995563710405883

>  <r_i_glide_einternal>  (1) 
2.1460648497858621

>  <r_i_glide_emodel>  (1) 
-44.574944800492617

>  <r_i_glide_emodel_strain>  (1) 
0.7884038241964646

>  <r_i_glide_energy>  (1) 
-31.762678070512823

>  <r_i_glide_erotb>  (1) 
0.77002039440311598

>  <r_i_glide_esite>  (1) 
0

>  <r_i_glide_evdw>  (1) 
-29.003369516053752

>  <r_i_glide_gscore>  (1) 
-5.9431444088602712

>  <r_i_glide_gscore_strain>  (1) 
0

>  <r_i_glide_hbond>  (1) 
0

>  <r_i_glide_ligand_efficiency>  (1) 
-0.19795149508297435

>  <r_i_glide_ligand_efficiency_ln>  (1) 
-1.3493020961142352

>  <r_i_glide_ligand_efficiency_sa>  (1) 
-0.61508132012398342

>  <r_i_glide_lipo>  (1) 
-3.0227421088920834

>  <r_i_glide_metal>  (1) 
-0

>  <r_i_glide_rewards>  (1) 
-1.8263579353997552

>  <r_lp_Energy>  (1) 
33.086953000000001

>  <r_lp_tautomer_probability>  (1) 
0.99990000499974985

>  <s_epik_cmdline>  (1) 
J2VwaWtfcHl0aG9uJywgJy1waHQnLCAnMS4wJywgJy1waCcsICc3LjQnLCAnLXRuJywgJzgnLCAnLW1hJywgJzUwMCcsICctaW1hZScsICc8aW5maWxlLm1hZT4nLCAnLW9tYWUnLCAnPG91dGZpbGUubWFlPic=

>  <s_epik_input>  (1) 
RltDSDJdW0NIXShbQ0gyXUYpYzFjKEYpW2NIXVtjSF1jKFtjSF0xKUMoPU8pW0NIMl1bQ0BASF0yW0NIMl1bQ0gyXVtDSDJdTjJbQ0gyXVtDSDJdW0NASF0oW0NIM10pW0NIXTNbQ0gyXVtDSDJdW0NIMl1bQ0gyXVtDSDJdMw==

>  <s_glide_docking_method>  (1) 
confgen

>  <s_i_glide_gridfile>  (1) 
gpcr_drd2_6luq_protein_autoprepared_prepared

>  <s_lp_Force_Field>  (1) 
S-OPLS

>  <s_lp_Variant>  (1) 
DiffSBDD_67-1

>  <s_m_source_file>  (1) 
generated_generic_title2_ligand_DiffSBDD_2026-06-23_prepared.sdf

>  <GenAI_Model>  (1) 
DiffSBDD

>  <Protein>  (1) 
generic_title2

$$$$
DiffSBDD_24
     RDKit          3D

  0  0  0  0  0  0  0  0  0  0999 V3000
M  V30 BEGIN CTAB
M  V30 COUNTS 68 69 0 0 1
M  V30 BEGIN ATOM
M  V30 1 C 6.255293 4.383003 -13.454402 0
M  V30 2 C 13.292470 9.591062 -6.352598 0
M  V30 3 C 10.569451 6.365838 -7.122586 0
M  V30 4 O 12.503356 9.116817 -7.387698 0
M  V30 5 C 8.616877 5.105278 -8.307647 0
M  V30 6 C 8.824303 3.429945 -17.038261 0
M  V30 7 C 8.049167 5.052463 -15.153104 0 CFG=2
M  V30 8 C 10.979001 7.636974 -6.378319 0
M  V30 9 C 12.943690 9.587657 -5.038302 0
M  V30 10 C 9.067475 6.328972 -7.477263 0
M  V30 11 C 8.832622 5.779808 -12.253700 0 CFG=1
M  V30 12 C 7.478074 2.136659 -13.041452 0
M  V30 13 C 6.214375 1.292057 -12.817819 0
M  V30 14 C 11.230144 7.700754 -5.052324 0
M  V30 15 C 8.546531 4.887032 -16.622837 0
M  V30 16 O 8.975411 4.390850 -14.283192 0
M  V30 17 C 11.126649 8.852184 -7.230517 0
M  V30 18 C 7.347112 3.637664 -12.668666 0 CFG=1
M  V30 19 C 8.402649 5.938836 -10.774318 0
M  V30 20 C 9.128306 5.032705 -9.763031 0
M  V30 21 C 11.644840 9.047247 -4.455597 0
M  V30 22 C 11.104050 6.504496 -4.206104 0
M  V30 23 C 6.632133 4.478971 -14.934748 0
M  V30 24 O 9.767679 5.590048 -16.748014 0
M  V30 25 C 11.397858 6.488849 -2.890419 0
M  V30 26 O 10.192467 6.144736 -12.362765 0
M  V30 27 C 8.701319 4.358969 -12.874135 0 CFG=2
M  V30 28 C 7.580397 5.532991 -17.636344 0
M  V30 29 H 5.287257 3.896114 -13.340165 0
M  V30 30 H 6.128255 5.386295 -13.047273 0
M  V30 31 H 14.228365 9.977833 -6.713502 0
M  V30 32 H 10.908326 5.460880 -6.645831 0
M  V30 33 H 11.141171 6.373541 -8.049810 0
M  V30 34 H 7.527974 5.060510 -8.314677 0
M  V30 35 H 8.943145 4.206139 -7.789593 0
M  V30 36 H 7.919590 2.823430 -17.028820 0
M  V30 37 H 9.227918 3.382980 -18.050131 0
M  V30 38 H 9.550392 2.953228 -16.385052 0
M  V30 39 H 8.028927 6.116682 -14.921595 0
M  V30 40 H 13.642369 9.990180 -4.319878 0
M  V30 41 H 8.788784 7.240045 -8.003278 0
M  V30 42 H 8.496732 6.344977 -6.548137 0
M  V30 43 H 8.250417 6.501301 -12.823129 0
M  V30 44 H 7.799627 2.025922 -14.076479 0
M  V30 45 H 8.281288 1.698324 -12.448190 0
M  V30 46 H 6.410087 0.243037 -13.043290 0
M  V30 47 H 5.873491 1.343531 -11.784491 0
M  V30 48 H 5.396851 1.609045 -13.464775 0
M  V30 49 H 10.681279 8.701382 -8.214094 0
M  V30 50 H 10.605599 9.691878 -6.785025 0
M  V30 51 H 7.082469 3.675169 -11.612550 0
M  V30 52 H 8.575457 6.974824 -10.485584 0
M  V30 53 H 7.326427 5.786814 -10.692894 0
M  V30 54 H 9.069555 4.001392 -10.107178 0
M  V30 55 H 10.175393 5.285945 -9.770711 0
M  V30 56 H 10.854931 9.779376 -4.620636 0
M  V30 57 H 11.766080 9.055122 -3.379266 0
M  V30 58 H 10.758472 5.590231 -4.648461 0
M  V30 59 H 5.896229 5.095561 -15.451669 0
M  V30 60 H 6.575380 3.483534 -15.370394 0
M  V30 61 H 9.660847 6.457902 -16.389694 0
M  V30 62 H 11.285832 5.590220 -2.314234 0
M  V30 63 H 11.750960 7.362043 -2.375134 0
M  V30 64 H 10.537457 5.727257 -13.142054 0
M  V30 65 H 9.476985 3.735855 -12.424975 0
M  V30 66 H 6.646637 4.974632 -17.705316 0
M  V30 67 H 7.326109 6.557315 -17.369014 0
M  V30 68 H 8.011679 5.550646 -18.638208 0
M  V30 END ATOM
M  V30 BEGIN BOND
M  V30 1 1 4 2
M  V30 2 1 8 3
M  V30 3 2 9 2
M  V30 4 1 10 3
M  V30 5 1 10 5
M  V30 6 1 13 12
M  V30 7 2 14 8
M  V30 8 1 15 6
M  V30 9 1 15 7
M  V30 10 1 16 7
M  V30 11 1 17 4
M  V30 12 1 17 8
M  V30 13 1 18 1
M  V30 14 1 18 12
M  V30 15 1 19 11
M  V30 16 1 20 5
M  V30 17 1 20 19
M  V30 18 1 21 9
M  V30 19 1 21 14
M  V30 20 1 22 14
M  V30 21 1 23 1
M  V30 22 1 23 7
M  V30 23 1 24 15
M  V30 24 2 25 22
M  V30 25 1 26 11
M  V30 26 1 27 11
M  V30 27 1 27 16
M  V30 28 1 27 18
M  V30 29 1 28 15
M  V30 30 1 29 1
M  V30 31 1 30 1
M  V30 32 1 31 2
M  V30 33 1 32 3
M  V30 34 1 33 3
M  V30 35 1 34 5
M  V30 36 1 35 5
M  V30 37 1 36 6
M  V30 38 1 37 6
M  V30 39 1 38 6
M  V30 40 1 7 39 CFG=1
M  V30 41 1 40 9
M  V30 42 1 41 10
M  V30 43 1 42 10
M  V30 44 1 11 43 CFG=3
M  V30 45 1 44 12
M  V30 46 1 45 12
M  V30 47 1 46 13
M  V30 48 1 47 13
M  V30 49 1 48 13
M  V30 50 1 49 17
M  V30 51 1 50 17
M  V30 52 1 18 51 CFG=1
M  V30 53 1 52 19
M  V30 54 1 53 19
M  V30 55 1 54 20
M  V30 56 1 55 20
M  V30 57 1 56 21
M  V30 58 1 57 21
M  V30 59 1 58 22
M  V30 60 1 59 23
M  V30 61 1 60 23
M  V30 62 1 61 24
M  V30 63 1 62 25
M  V30 64 1 63 25
M  V30 65 1 64 26
M  V30 66 1 27 65 CFG=1
M  V30 67 1 66 28
M  V30 68 1 67 28
M  V30 69 1 68 28
M  V30 END BOND
M  V30 END CTAB
M  END
>  <i_epik_Tot_Q>  (1) 
0

>  <i_epik_Tot_abs_Q>  (1) 
0

>  <i_i_glide_confnum>  (1) 
1386

>  <i_i_glide_lignum>  (1) 
42

>  <i_i_glide_posenum>  (1) 
305

>  <i_i_glide_rotatable_bonds>  (1) 
12

>  <i_lp_mmshare_version>  (1) 
72125

>  <i_m_source_file_index>  (1) 
25

>  <i_f3d_flags>  (1) 
0

>  <num_sample>  (1) 
100

>  <b_lp_Chiralities_Consistent>  (1) 
1

>  <r_epik_Charging_Adjusted_Penalty>  (1) 
0

>  <r_epik_Ionization_Penalty>  (1) 
1.101119789916782e-07

>  <r_epik_Ionization_Penalty_Charging>  (1) 
0

>  <r_epik_Ionization_Penalty_Neutral>  (1) 
1.101119789916782e-07

>  <r_epik_State_Penalty>  (1) 
-0

>  <r_glide_ring_energy>  (1) 
1.2053301093634785

>  <r_i_docking_score>  (1) 
-5.9351053478321276

>  <r_i_glide_ecoul>  (1) 
-2.4006522688022458

>  <r_i_glide_eff_state_penalty>  (1) 
-0

>  <r_i_glide_einternal>  (1) 
10.164428300940894

>  <r_i_glide_emodel>  (1) 
-36.184148056077653

>  <r_i_glide_emodel_strain>  (1) 
0.17546357748851449

>  <r_i_glide_energy>  (1) 
-32.696666508509217

>  <r_i_glide_erotb>  (1) 
1.1402384900908482

>  <r_i_glide_esite>  (1) 
0

>  <r_i_glide_evdw>  (1) 
-30.296014239706974

>  <r_i_glide_gscore>  (1) 
-5.9351053478321276

>  <r_i_glide_gscore_strain>  (1) 
0

>  <r_i_glide_hbond>  (1) 
-0.033306435577905344

>  <r_i_glide_ligand_efficiency>  (1) 
-0.21196804813686171

>  <r_i_glide_ligand_efficiency_ln>  (1) 
-1.3699965765448359

>  <r_i_glide_ligand_efficiency_sa>  (1) 
-0.64365983736240395

>  <r_i_glide_lipo>  (1) 
-3.7079574721754369

>  <r_i_glide_metal>  (1) 
-0

>  <r_i_glide_rewards>  (1) 
-1.4591813778639484

>  <r_lp_Energy>  (1) 
28.105841999999999

>  <r_lp_tautomer_probability>  (1) 
1

>  <s_epik_cmdline>  (1) 
J2VwaWtfcHl0aG9uJywgJy1waHQnLCAnMS4wJywgJy1waCcsICc3LjQnLCAnLXRuJywgJzgnLCAnLW1hJywgJzUwMCcsICctaW1hZScsICc8aW5maWxlLm1hZT4nLCAnLW9tYWUnLCAnPG91dGZpbGUubWFlPic=

>  <s_epik_input>  (1) 
W0NIM11DKFtPSF0pKFtDSDNdKVtDQEBIXTFPW0NASF0oW0NAQEhdKFtDSDJdW0NIMl0xKVtDSDJdW0NIM10pW0NASF0oW09IXSlbQ0gyXVtDSDJdW0NIMl1bQ0gyXVtDSDJdQzI9QyhbQ0hdPVtDSDJdKVtDSDJdW0NIXT1bQ0hdT1tDSDJdMg==

>  <s_glide_docking_method>  (1) 
confgen

>  <s_i_glide_gridfile>  (1) 
gpcr_drd2_6luq_protein_autoprepared_prepared

>  <s_lp_Force_Field>  (1) 
S-OPLS

>  <s_lp_Variant>  (1) 
DiffSBDD_24-1

>  <s_m_source_file>  (1) 
generated_generic_title2_ligand_DiffSBDD_2026-06-23_prepared.sdf

>  <GenAI_Model>  (1) 
DiffSBDD

>  <Protein>  (1) 
generic_title2

$$$$
DiffSBDD_51
     RDKit          3D

  0  0  0  0  0  0  0  0  0  0999 V3000
M  V30 BEGIN CTAB
M  V30 COUNTS 67 70 0 0 1
M  V30 BEGIN ATOM
M  V30 1 C 9.325809 7.471790 -6.544542 0
M  V30 2 C 8.785568 6.964137 -11.928098 0
M  V30 3 C 9.802641 7.029786 -8.990159 0
M  V30 4 C 10.178925 6.499854 -11.453806 0 CFG=1
M  V30 5 C 5.165921 8.011410 -19.745161 0
M  V30 6 N 4.040824 9.155471 -21.565839 0
M  V30 7 C 6.674802 4.341513 -14.943191 0
M  V30 8 N 8.051301 6.122481 -12.890606 0
M  V30 9 C 6.266697 4.395120 -19.342178 0
M  V30 10 C 10.179871 7.647114 -7.781467 0
M  V30 11 C 5.692712 5.634197 -19.925462 0
M  V30 12 C 4.575392 6.782199 -21.769236 0
M  V30 13 C 5.121517 5.607832 -21.216576 0
M  V30 14 C 6.789167 6.700565 -13.357800 0 CFG=2
M  V30 15 C 5.472766 6.246547 -11.436987 0
M  V30 16 N 6.367471 5.589811 -17.100219 0
M  V30 17 C 11.199694 6.577232 -12.609264 0
M  V30 18 C 8.404383 4.785613 -13.148074 0
M  V30 19 C 6.944684 4.516888 -17.964941 0 CFG=2
M  V30 20 C 5.716077 6.839855 -19.188977 0
M  V30 21 C 11.768193 7.980947 -10.086815 0
M  V30 22 O 6.217022 3.310386 -19.921406 0
M  V30 23 C 6.345767 6.883417 -17.804196 0
M  V30 24 C 3.434901 9.247589 -22.764950 0
M  V30 25 N 2.867462 9.345479 -23.768149 0
M  V30 26 O 5.657667 6.075106 -12.836676 0
M  V30 27 N 6.843922 5.588170 -15.711933 0
M  V30 28 C 11.351089 8.427046 -7.724929 0
M  V30 29 C 8.472233 4.654187 -18.140716 0
M  V30 30 C 10.592715 7.194044 -10.148859 0
M  V30 31 C 7.811420 3.958207 -14.029220 0
M  V30 32 C 12.143331 8.592701 -8.876441 0
M  V30 33 C 6.663444 6.812297 -14.896232 0
M  V30 34 C 4.592700 7.986651 -21.030582 0
M  V30 35 H 9.943678 7.276050 -5.668179 0
M  V30 36 H 8.628900 6.640331 -6.661969 0
M  V30 37 H 8.739625 8.373906 -6.367598 0
M  V30 38 H 8.871774 7.975039 -12.328849 0
M  V30 39 H 8.148440 7.053731 -11.056893 0
M  V30 40 H 8.905370 6.427590 -9.029821 0
M  V30 41 H 10.123814 5.467687 -11.121198 0
M  V30 42 H 5.184662 8.932020 -19.183602 0
M  V30 43 H 4.083661 9.975914 -20.980640 0
M  V30 44 H 5.733621 4.356462 -14.396979 0
M  V30 45 H 6.575381 3.488205 -15.602476 0
M  V30 46 H 4.138728 6.757649 -22.756737 0
M  V30 47 H 5.102855 4.687653 -21.783336 0
M  V30 48 H 6.753055 7.717220 -12.966480 0
M  V30 49 H 4.575407 5.724860 -11.113705 0
M  V30 50 H 5.356250 7.300704 -11.185238 0
M  V30 51 H 6.297002 5.830128 -10.858284 0
M  V30 52 H 12.174716 6.191720 -12.322577 0
M  V30 53 H 11.330689 7.589985 -12.977082 0
M  V30 54 H 10.870268 5.990577 -13.464998 0
M  V30 55 H 9.226546 4.435867 -12.555776 0
M  V30 56 H 6.776032 3.551601 -17.498733 0
M  V30 57 H 12.384938 8.110568 -10.961075 0
M  V30 58 H 5.830127 7.640007 -17.213816 0
M  V30 59 H 7.375193 7.190227 -17.953723 0
M  V30 60 H 11.641705 8.899206 -6.798238 0
M  V30 61 H 8.874164 3.813773 -18.707937 0
M  V30 62 H 8.982881 4.663390 -17.177649 0
M  V30 63 H 8.748988 5.562995 -18.674869 0
M  V30 64 H 8.175420 2.945599 -14.123749 0
M  V30 65 H 13.041128 9.189783 -8.831724 0
M  V30 66 H 5.666436 7.211991 -15.082563 0
M  V30 67 H 7.375394 7.567551 -15.216431 0
M  V30 END ATOM
M  V30 BEGIN BOND
M  V30 1 1 4 2
M  V30 2 1 8 2
M  V30 3 1 10 1
M  V30 4 2 10 3
M  V30 5 1 11 9
M  V30 6 1 13 11
M  V30 7 2 13 12
M  V30 8 1 14 8
M  V30 9 1 17 4
M  V30 10 1 18 8
M  V30 11 1 19 9
M  V30 12 1 19 16
M  V30 13 1 20 5
M  V30 14 2 20 11
M  V30 15 2 22 9
M  V30 16 1 23 16
M  V30 17 1 23 20
M  V30 18 1 24 6
M  V30 19 3 25 24
M  V30 20 1 26 14
M  V30 21 1 26 15
M  V30 22 1 27 7
M  V30 23 1 27 16
M  V30 24 1 28 10
M  V30 25 1 29 19
M  V30 26 1 30 3
M  V30 27 1 30 4
M  V30 28 2 30 21
M  V30 29 1 31 7
M  V30 30 2 31 18
M  V30 31 1 32 21
M  V30 32 2 32 28
M  V30 33 1 33 14
M  V30 34 1 33 27
M  V30 35 2 34 5
M  V30 36 1 34 6
M  V30 37 1 34 12
M  V30 38 1 35 1
M  V30 39 1 36 1
M  V30 40 1 37 1
M  V30 41 1 38 2
M  V30 42 1 39 2
M  V30 43 1 40 3
M  V30 44 1 4 41 CFG=1
M  V30 45 1 42 5
M  V30 46 1 43 6
M  V30 47 1 44 7
M  V30 48 1 45 7
M  V30 49 1 46 12
M  V30 50 1 47 13
M  V30 51 1 14 48 CFG=1
M  V30 52 1 49 15
M  V30 53 1 50 15
M  V30 54 1 51 15
M  V30 55 1 52 17
M  V30 56 1 53 17
M  V30 57 1 54 17
M  V30 58 1 55 18
M  V30 59 1 19 56 CFG=1
M  V30 60 1 57 21
M  V30 61 1 58 23
M  V30 62 1 59 23
M  V30 63 1 60 28
M  V30 64 1 61 29
M  V30 65 1 62 29
M  V30 66 1 63 29
M  V30 67 1 64 31
M  V30 68 1 65 32
M  V30 69 1 66 33
M  V30 70 1 67 33
M  V30 END BOND
M  V30 END CTAB
M  END
>  <i_epik_Tot_Q>  (1) 
0

>  <i_epik_Tot_abs_Q>  (1) 
0

>  <i_i_glide_confnum>  (1) 
6

>  <i_i_glide_lignum>  (1) 
81

>  <i_i_glide_posenum>  (1) 
390

>  <i_i_glide_rotatable_bonds>  (1) 
6

>  <i_lp_mmshare_version>  (1) 
72125

>  <i_m_source_file_index>  (1) 
52

>  <i_f3d_flags>  (1) 
0

>  <num_sample>  (1) 
100

>  <b_lp_Chiralities_Consistent>  (1) 
1

>  <r_epik_Charging_Adjusted_Penalty>  (1) 
7.4502254237452924e-08

>  <r_epik_Ionization_Penalty>  (1) 
0.00022335133816854321

>  <r_epik_Ionization_Penalty_Charging>  (1) 
7.4502254237452924e-08

>  <r_epik_Ionization_Penalty_Neutral>  (1) 
0.00022327683591430577

>  <r_epik_State_Penalty>  (1) 
-0

>  <r_glide_ring_energy>  (1) 
0

>  <r_i_docking_score>  (1) 
-5.9317057365868795

>  <r_i_glide_ecoul>  (1) 
-1.4789957042961275

>  <r_i_glide_eff_state_penalty>  (1) 
-0

>  <r_i_glide_einternal>  (1) 
2.6504027282546909

>  <r_i_glide_emodel>  (1) 
-51.932914530731146

>  <r_i_glide_emodel_strain>  (1) 
2.0756585237426464

>  <r_i_glide_energy>  (1) 
-42.531996763629884

>  <r_i_glide_erotb>  (1) 
0.47630443723403276

>  <r_i_glide_esite>  (1) 
-0.0044730192259736252

>  <r_i_glide_evdw>  (1) 
-41.053001059333759

>  <r_i_glide_gscore>  (1) 
-5.9317057365868795

>  <r_i_glide_gscore_strain>  (1) 
0

>  <r_i_glide_hbond>  (1) 
0

>  <r_i_glide_ligand_efficiency>  (1) 
-0.17446193342902586

>  <r_i_glide_ligand_efficiency_ln>  (1) 
-1.3104801759223306

>  <r_i_glide_ligand_efficiency_sa>  (1) 
-0.565188938410359

>  <r_i_glide_lipo>  (1) 
-2.3642522791147416

>  <r_i_glide_metal>  (1) 
-0

>  <r_i_glide_rewards>  (1) 
-1.7647854668690899

>  <r_lp_Energy>  (1) 
50.225366999999999

>  <r_lp_tautomer_probability>  (1) 
1

>  <s_epik_Chemistry_Notes>  (1) 
This compound has an imine and may undergo hydrolysis. This compound contains an acetal/aminal-like group ( X-CH(R)-Y where X, Y are N, S, or O) that may be acid/base labile, releasing an aldehyde.

>  <s_epik_cmdline>  (1) 
J2VwaWtfcHl0aG9uJywgJy1waHQnLCAnMS4wJywgJy1waCcsICc3LjQnLCAnLXRuJywgJzgnLCAnLW1hJywgJzUwMCcsICctaW1hZScsICc8aW5maWxlLm1hZT4nLCAnLW9tYWUnLCAnPG91dGZpbGUubWFlPic=

>  <s_epik_input>  (1) 
W0NIM11jMVtjSF1jKFtjSF1bY0hdW2NIXTEpW0NASF0oW0NIM10pW0NIMl1OMltDQEBIXShPW0NIM10pW0NIMl1OKFtDSDJdW0NIXT1bQ0hdMilOKFtDQEBIXShDMz1PKVtDSDNdKVtDSDJdYyhjMzQpW2NIXWMoW05IXUMjTilbY0hdW2NIXTQ=

>  <s_glide_docking_method>  (1) 
confgen

>  <s_i_glide_gridfile>  (1) 
gpcr_drd2_6luq_protein_autoprepared_prepared

>  <s_lp_Force_Field>  (1) 
S-OPLS

>  <s_lp_Variant>  (1) 
DiffSBDD_51-2

>  <s_m_source_file>  (1) 
generated_generic_title2_ligand_DiffSBDD_2026-06-23_prepared.sdf

>  <GenAI_Model>  (1) 
DiffSBDD

>  <Protein>  (1) 
generic_title2

$$$$
DiffSBDD_80
     RDKit          3D

  0  0  0  0  0  0  0  0  0  0999 V3000
M  V30 BEGIN CTAB
M  V30 COUNTS 80 86 0 0 1
M  V30 BEGIN ATOM
M  V30 1 C 8.469249 5.167595 -14.151694 0
M  V30 2 C 8.802299 1.506770 -21.924294 0
M  V30 3 C 6.487998 5.182249 -17.973138 0
M  V30 4 O 7.693880 0.048447 -20.358138 0
M  V30 5 N 9.375411 7.228389 -9.081799 0 CHG=1
M  V30 6 C 4.684650 7.047831 -18.960342 0
M  V30 7 C 6.023282 6.207139 -17.123502 0
M  V30 8 C 7.616765 1.041183 -21.079320 0
M  V30 9 C 6.523650 7.479994 -15.001924 0
M  V30 10 C 9.977237 6.217688 -11.678406 0 CFG=2
M  V30 11 C 10.782618 7.373924 -9.470323 0 CFG=2
M  V30 12 C 6.554734 3.393693 -21.149766 0 CFG=1
M  V30 13 C 7.919474 4.609060 -11.602529 0 CFG=2
M  V30 14 O 7.385064 3.151150 -13.378542 0
M  V30 15 C 7.713066 3.820136 -22.079792 0
M  V30 16 C 6.326120 1.859379 -21.179131 0
M  V30 17 N 7.352254 4.190935 -17.750727 0
M  V30 18 O 5.643280 5.212709 -10.804529 0
M  V30 19 C 8.726469 5.985064 -9.543496 0
M  V30 20 C 5.109812 7.149023 -17.624213 0
M  V30 21 O 7.742019 6.966558 -11.585011 0
M  V30 22 C 7.935518 5.338385 -15.596657 0 CFG=2
M  V30 23 C 7.586017 2.735885 -15.765209 0
M  V30 24 C 6.582782 6.108982 -15.712264 0 CFG=2
M  V30 25 C 5.166042 5.993591 -19.779798 0
M  V30 26 O 11.041788 8.629575 -9.238340 0 CHG=-1
M  V30 27 C 6.704739 3.958895 -19.740424 0
M  V30 28 C 8.590198 5.937245 -11.095180 0 CFG=1
M  V30 29 C 6.078675 5.079472 -19.194097 0
M  V30 30 N 7.552204 3.314916 -18.888746 0
M  V30 31 C 9.550340 3.887809 -16.856607 0
M  V30 32 C 9.010512 3.028436 -21.826794 0
M  V30 33 C 11.008927 7.069550 -10.945334 0 CFG=2
M  V30 34 C 7.517534 4.538964 -13.111769 0 CFG=2
M  V30 35 C 8.051016 4.050908 -16.468055 0 CFG=1
M  V30 36 C 4.707822 5.885725 -21.220435 0
M  V30 37 O 10.175959 7.616784 -11.943194 0
M  V30 38 C 6.649872 4.217318 -10.776854 0
M  V30 39 C 6.654808 2.843398 -14.546748 0
M  V30 40 H 8.723381 6.170905 -13.834717 0
M  V30 41 H 9.404944 4.615479 -14.146934 0
M  V30 42 H 9.702710 0.980664 -21.607263 0
M  V30 43 H 5.621956 1.555289 -20.403870 0
M  V30 44 H 8.613054 1.222605 -22.959459 0
M  V30 45 H 8.849570 7.993653 -9.483448 0
M  V30 46 H 3.988021 7.769992 -19.358321 0
M  V30 47 H 5.485767 7.768766 -14.833688 0
M  V30 48 H 6.990371 7.477475 -14.020986 0
M  V30 49 H 6.976143 8.275647 -15.588309 0
M  V30 50 H 10.398198 5.513136 -12.389205 0
M  V30 51 H 11.310321 6.586141 -8.932481 0
M  V30 52 H 5.640207 3.719957 -21.610836 0
M  V30 53 H 8.658255 3.822708 -11.438611 0
M  V30 54 H 7.410617 3.657857 -23.115218 0
M  V30 55 H 7.898850 4.891021 -21.983853 0
M  V30 56 H 5.871054 1.588516 -22.132893 0
M  V30 57 H 6.024826 6.049671 -10.571533 0
M  V30 58 H 7.768912 5.923639 -9.034697 0
M  V30 59 H 9.304128 5.131055 -9.183576 0
M  V30 60 H 4.734991 7.940417 -16.992347 0
M  V30 61 H 7.387262 7.467016 -10.843982 0
M  V30 62 H 8.660472 5.993124 -16.063562 0
M  V30 63 H 8.454438 2.154926 -15.451686 0
M  V30 64 H 7.095997 2.090700 -16.495808 0
M  V30 65 H 5.820474 5.525918 -15.209480 0
M  V30 66 H 10.230588 3.989728 -16.014547 0
M  V30 67 H 9.751764 2.920916 -17.319830 0
M  V30 68 H 9.853610 4.649438 -17.577912 0
M  V30 69 H 9.418764 3.280127 -20.847722 0
M  V30 70 H 9.768071 3.334133 -22.548511 0
M  V30 71 H 12.047336 7.051055 -11.267992 0
M  V30 72 H 6.549256 5.029701 -13.199408 0
M  V30 73 H 4.156179 6.782843 -21.499177 0
M  V30 74 H 5.549738 5.827671 -21.909156 0
M  V30 75 H 4.024938 5.045765 -21.349282 0
M  V30 76 H 6.901236 3.990440 -9.740851 0
M  V30 77 H 6.174388 3.315615 -11.168966 0
M  V30 78 H 6.197136 1.867479 -14.377969 0
M  V30 79 H 5.839360 3.548055 -14.676888 0
M  V30 80 H 9.301668 7.311421 -8.080934 0
M  V30 END ATOM
M  V30 BEGIN BOND
M  V30 1 2 7 3
M  V30 2 1 8 2
M  V30 3 2 8 4
M  V30 4 1 11 5
M  V30 5 1 15 12
M  V30 6 1 16 8
M  V30 7 1 16 12
M  V30 8 1 17 3
M  V30 9 1 19 5
M  V30 10 2 20 6
M  V30 11 1 20 7
M  V30 12 1 22 1
M  V30 13 1 24 7
M  V30 14 1 24 9
M  V30 15 1 24 22
M  V30 16 1 25 6
M  V30 17 1 26 11
M  V30 18 1 27 12
M  V30 19 1 28 10
M  V30 20 1 28 13
M  V30 21 1 28 19
M  V30 22 1 28 21 CFG=3
M  V30 23 1 29 3
M  V30 24 2 29 25
M  V30 25 1 29 27
M  V30 26 1 30 17
M  V30 27 2 30 27
M  V30 28 1 32 2
M  V30 29 1 32 15
M  V30 30 1 33 10
M  V30 31 1 33 11
M  V30 32 1 34 1
M  V30 33 1 34 13
M  V30 34 1 34 14
M  V30 35 1 35 17
M  V30 36 1 35 22
M  V30 37 1 35 23
M  V30 38 1 35 31 CFG=3
M  V30 39 1 36 25
M  V30 40 1 37 10
M  V30 41 1 37 33
M  V30 42 1 38 13
M  V30 43 1 38 18
M  V30 44 1 39 14
M  V30 45 1 39 23
M  V30 46 1 40 1
M  V30 47 1 41 1
M  V30 48 1 42 2
M  V30 49 1 43 16
M  V30 50 1 44 2
M  V30 51 1 45 5
M  V30 52 1 46 6
M  V30 53 1 47 9
M  V30 54 1 48 9
M  V30 55 1 49 9
M  V30 56 1 10 50 CFG=3
M  V30 57 1 11 51 CFG=1
M  V30 58 1 12 52 CFG=3
M  V30 59 1 13 53 CFG=3
M  V30 60 1 54 15
M  V30 61 1 55 15
M  V30 62 1 56 16
M  V30 63 1 57 18
M  V30 64 1 58 19
M  V30 65 1 59 19
M  V30 66 1 60 20
M  V30 67 1 61 21
M  V30 68 1 22 62 CFG=3
M  V30 69 1 63 23
M  V30 70 1 64 23
M  V30 71 1 24 65 CFG=1
M  V30 72 1 66 31
M  V30 73 1 67 31
M  V30 74 1 68 31
M  V30 75 1 69 32
M  V30 76 1 70 32
M  V30 77 1 33 71 CFG=3
M  V30 78 1 34 72 CFG=1
M  V30 79 1 73 36
M  V30 80 1 74 36
M  V30 81 1 75 36
M  V30 82 1 76 38
M  V30 83 1 77 38
M  V30 84 1 78 39
M  V30 85 1 79 39
M  V30 86 1 80 5
M  V30 END BOND
M  V30 END CTAB
M  END
>  <i_epik_Tot_Q>  (1) 
0

>  <i_epik_Tot_abs_Q>  (1) 
2

>  <i_i_glide_confnum>  (1) 
72

>  <i_i_glide_lignum>  (1) 
140

>  <i_i_glide_posenum>  (1) 
61

>  <i_i_glide_rotatable_bonds>  (1) 
6

>  <i_lp_mmshare_version>  (1) 
72125

>  <i_m_source_file_index>  (1) 
81

>  <i_f3d_flags>  (1) 
0

>  <num_sample>  (1) 
100

>  <b_lp_Chiralities_Consistent>  (1) 
1

>  <r_epik_Charging_Adjusted_Penalty>  (1) 
0.19389291401224384

>  <r_epik_Ionization_Penalty>  (1) 
0.092004943806736766

>  <r_epik_Ionization_Penalty_Charging>  (1) 
0.091964506543683239

>  <r_epik_Ionization_Penalty_Neutral>  (1) 
4.0437263053531681e-05

>  <r_epik_State_Penalty>  (1) 
0.10192840746856062

>  <r_glide_ring_energy>  (1) 
1.9914992284172306

>  <r_i_docking_score>  (1) 
-5.9233650467028802

>  <r_i_glide_ecoul>  (1) 
-10.578327391804395

>  <r_i_glide_eff_state_penalty>  (1) 
0.10192840746856062

>  <r_i_glide_einternal>  (1) 
12.17667033664034

>  <r_i_glide_emodel>  (1) 
-34.187514476613096

>  <r_i_glide_emodel_strain>  (1) 
1.7971709677191257

>  <r_i_glide_energy>  (1) 
-36.519095276046237

>  <r_i_glide_erotb>  (1) 
0.28387705293314092

>  <r_i_glide_esite>  (1) 
-0.10330264827997671

>  <r_i_glide_evdw>  (1) 
-25.940767884241843

>  <r_i_glide_gscore>  (1) 
-6.0252934541714405

>  <r_i_glide_gscore_strain>  (1) 
0

>  <r_i_glide_hbond>  (1) 
-0.28874224015063266

>  <r_i_glide_ligand_efficiency>  (1) 
-0.15188115504366359

>  <r_i_glide_ligand_efficiency_ln>  (1) 
-1.2701376107290792

>  <r_i_glide_ligand_efficiency_sa>  (1) 
-0.51506111096228091

>  <r_i_glide_lipo>  (1) 
-2.2490964873876411

>  <r_i_glide_metal>  (1) 
-0

>  <r_i_glide_rewards>  (1) 
-0.78424162830357969

>  <r_lp_Energy>  (1) 
35.890972999999995

>  <r_lp_tautomer_probability>  (1) 
0.99999997999999979

>  <s_epik_Chemistry_Notes>  (1) 
This compound contains an acetal/aminal-like group ( X-CH(R)-Y where X, Y are N, S, or O) that may be acid/base labile, releasing an aldehyde.

>  <s_epik_cmdline>  (1) 
J2VwaWtfcHl0aG9uJywgJy1waHQnLCAnMS4wJywgJy1waCcsICc3LjQnLCAnLXRuJywgJzgnLCAnLW1hJywgJzUwMCcsICctaW1hZScsICc8aW5maWxlLm1hZT4nLCAnLW9tYWUnLCAnPG91dGZpbGUubWFlPic=

>  <s_epik_input>  (1) 
W0NASF0xMltDQEBIXShPMilbQ0BASF0oW09IXSlbTkhdW0NIMl1bQ0BdMShbT0hdKVtDQEBIXShbQ0gyXVtPSF0pW0NASF0oT1tDSDJdW0NIMl0zKVtDSDJdW0NAQEhdNFtDQEBIXShbQ0gzXSljKGM1bjZbQ0BdMzRbQ0gzXSlbY0hdW2NIXWMoW0NIM10pYzVjKG42KVtDQEhdKFtDSDJdW0NIMl1bQ0gyXTcpW0NIXT1DN1tPSF0=

>  <s_glide_docking_method>  (1) 
confgen

>  <s_i_glide_gridfile>  (1) 
gpcr_drd2_6luq_protein_autoprepared_prepared

>  <s_lp_Force_Field>  (1) 
S-OPLS

>  <s_lp_Variant>  (1) 
DiffSBDD_80-2

>  <s_m_source_file>  (1) 
generated_generic_title2_ligand_DiffSBDD_2026-06-23_prepared.sdf

>  <GenAI_Model>  (1) 
DiffSBDD

>  <Protein>  (1) 
generic_title2

$$$$
DiffSBDD_14
     RDKit          3D

  0  0  0  0  0  0  0  0  0  0999 V3000
M  V30 BEGIN CTAB
M  V30 COUNTS 47 48 0 0 1
M  V30 BEGIN ATOM
M  V30 1 N 9.712433 6.482426 -10.423766 0
M  V30 2 C 8.514010 4.235375 -14.046816 0
M  V30 3 N 9.177616 4.272752 -12.723093 0 CHG=1
M  V30 4 C 11.087565 9.227857 -5.676618 0
M  V30 5 C 8.950879 6.425070 -11.576626 0
M  V30 6 C 7.214136 5.040211 -13.928804 0
M  V30 7 C 10.921777 7.868069 -8.821752 0
M  V30 8 C 6.188166 3.668457 -12.095117 0
M  V30 9 C 11.701315 9.107939 -4.415623 0
M  V30 10 C 10.613856 8.079261 -6.341839 0
M  V30 11 C 11.843962 7.836124 -3.815536 0
M  V30 12 C 11.375575 6.685569 -4.497560 0
M  V30 13 C 10.763317 6.812214 -5.753234 0
M  V30 14 C 10.177366 7.622018 -10.102414 0
M  V30 15 O 8.763293 7.326187 -12.397079 0
M  V30 16 C 5.941627 6.142595 -12.000641 0
M  V30 17 C 9.945157 8.202150 -7.688109 0
M  V30 18 N 12.575419 8.752131 -1.603758 0
M  V30 19 N 12.435859 7.726249 -2.541596 0
M  V30 20 C 8.315147 5.038822 -11.800168 0 CFG=1
M  V30 21 C 6.892179 5.002593 -12.431287 0
M  V30 22 O 12.399317 6.440785 -1.985227 0
M  V30 23 H 8.292002 3.197445 -14.297282 0
M  V30 24 H 9.167300 4.634499 -14.823789 0
M  V30 25 H 10.091575 4.702076 -12.785242 0
M  V30 26 H 10.975158 10.201339 -6.130421 0
M  V30 27 H 6.414764 4.637134 -14.552531 0
M  V30 28 H 7.387479 6.066092 -14.256902 0
M  V30 29 H 11.646752 8.670894 -8.959560 0
M  V30 30 H 11.486217 6.966955 -8.580064 0
M  V30 31 H 6.778109 2.798261 -12.385000 0
M  V30 32 H 5.979146 3.590226 -11.026947 0
M  V30 33 H 5.236085 3.590569 -12.620315 0
M  V30 34 H 12.055723 9.990023 -3.904893 0
M  V30 35 H 11.478668 5.707072 -4.055180 0
M  V30 36 H 10.401682 5.934416 -6.266556 0
M  V30 37 H 10.059288 8.504176 -10.737914 0
M  V30 38 H 6.296261 7.135637 -12.270958 0
M  V30 39 H 4.975700 6.031486 -12.485385 0
M  V30 40 H 5.775420 6.136618 -10.922181 0
M  V30 41 H 9.100639 7.508636 -7.695894 0
M  V30 42 H 9.506934 9.190217 -7.816419 0
M  V30 43 H 13.009767 8.376057 -0.764111 0
M  V30 44 H 13.187424 9.479023 -1.974132 0
M  V30 45 H 8.293546 4.523168 -10.837640 0
M  V30 46 H 11.494485 6.278878 -1.759634 0
M  V30 47 H 9.272074 3.329640 -12.372946 0
M  V30 END ATOM
M  V30 BEGIN BOND
M  V30 1 1 3 2
M  V30 2 1 5 1
M  V30 3 1 6 2
M  V30 4 2 9 4
M  V30 5 1 10 4
M  V30 6 1 11 9
M  V30 7 2 12 11
M  V30 8 2 13 10
M  V30 9 1 13 12
M  V30 10 2 14 1
M  V30 11 1 14 7
M  V30 12 2 15 5
M  V30 13 1 17 7
M  V30 14 1 17 10
M  V30 15 1 19 11
M  V30 16 1 19 18
M  V30 17 1 20 3
M  V30 18 1 20 5
M  V30 19 1 21 6
M  V30 20 1 21 8
M  V30 21 1 21 16
M  V30 22 1 21 20
M  V30 23 1 22 19
M  V30 24 1 23 2
M  V30 25 1 24 2
M  V30 26 1 25 3
M  V30 27 1 26 4
M  V30 28 1 27 6
M  V30 29 1 28 6
M  V30 30 1 29 7
M  V30 31 1 30 7
M  V30 32 1 31 8
M  V30 33 1 32 8
M  V30 34 1 33 8
M  V30 35 1 34 9
M  V30 36 1 35 12
M  V30 37 1 36 13
M  V30 38 1 37 14
M  V30 39 1 38 16
M  V30 40 1 39 16
M  V30 41 1 40 16
M  V30 42 1 41 17
M  V30 43 1 42 17
M  V30 44 1 43 18
M  V30 45 1 44 18
M  V30 46 1 20 45 CFG=1
M  V30 47 1 46 22
M  V30 48 1 47 3
M  V30 END BOND
M  V30 END CTAB
M  END
>  <i_epik_Tot_Q>  (1) 
1

>  <i_epik_Tot_abs_Q>  (1) 
1

>  <i_i_glide_confnum>  (1) 
35

>  <i_i_glide_lignum>  (1) 
28

>  <i_i_glide_posenum>  (1) 
221

>  <i_i_glide_rotatable_bonds>  (1) 
7

>  <i_lp_mmshare_version>  (1) 
72125

>  <i_m_source_file_index>  (1) 
15

>  <i_f3d_flags>  (1) 
0

>  <num_sample>  (1) 
100

>  <b_lp_Chiralities_Consistent>  (1) 
1

>  <r_epik_Charging_Adjusted_Penalty>  (1) 
1.3617227199011863

>  <r_epik_Ionization_Penalty>  (1) 
0.68407859148239814

>  <r_epik_Ionization_Penalty_Charging>  (1) 
0.68086135995059327

>  <r_epik_Ionization_Penalty_Neutral>  (1) 
0.0032172315318048095

>  <r_epik_State_Penalty>  (1) 
0.68086135995059305

>  <r_glide_ring_energy>  (1) 
0

>  <r_i_docking_score>  (1) 
-5.920462655146765

>  <r_i_glide_ecoul>  (1) 
-5.5066270727183433

>  <r_i_glide_eff_state_penalty>  (1) 
0.68086135995059305

>  <r_i_glide_einternal>  (1) 
0.90764575052903318

>  <r_i_glide_emodel>  (1) 
-63.766332831782947

>  <r_i_glide_emodel_strain>  (1) 
0.13325988563287439

>  <r_i_glide_energy>  (1) 
-43.132937935186305

>  <r_i_glide_erotb>  (1) 
1.1872890279772172

>  <r_i_glide_esite>  (1) 
-0.10469367212215318

>  <r_i_glide_evdw>  (1) 
-37.62631086246796

>  <r_i_glide_gscore>  (1) 
-6.601324015097358

>  <r_i_glide_gscore_strain>  (1) 
0

>  <r_i_glide_hbond>  (1) 
-0.2572411905037314

>  <r_i_glide_ligand_efficiency>  (1) 
-0.26911193887030749

>  <r_i_glide_ligand_efficiency_ln>  (1) 
-1.4471770270403053

>  <r_i_glide_ligand_efficiency_sa>  (1) 
-0.75406223706352993

>  <r_i_glide_lipo>  (1) 
-2.2175754856642862

>  <r_i_glide_metal>  (1) 
-0

>  <r_i_glide_rewards>  (1) 
-2.5017930907532535

>  <r_lp_Energy>  (1) 
27.896162

>  <s_epik_Chemistry_Notes>  (1) 
This compound has an imine and may undergo hydrolysis. This compound has a N-S or N-O group and may undergo hydrolysis at high or low pH.

>  <s_epik_cmdline>  (1) 
J2VwaWtfcHl0aG9uJywgJy1waHQnLCAnMS4wJywgJy1waCcsICc3LjQnLCAnLXRuJywgJzgnLCAnLW1hJywgJzUwMCcsICctaW1hZScsICc8aW5maWxlLm1hZT4nLCAnLW9tYWUnLCAnPG91dGZpbGUubWFlPic=

>  <s_epik_input>  (1) 
W0NIM11DMShbQ0gzXSlbQ0gyXVtDSDJdW05IXVtDQEhdMUMoPU8pL049W0NIXS9bQ0gyXVtDSDJdYzJbY0hdW2NIXWMoW2NIXVtjSF0yKU4oW05IMl0pW09IXQ==

>  <s_glide_docking_method>  (1) 
confgen

>  <s_i_glide_gridfile>  (1) 
gpcr_drd2_6luq_protein_autoprepared_prepared

>  <s_lp_Force_Field>  (1) 
S-OPLS

>  <s_lp_Variant>  (1) 
DiffSBDD_14-3

>  <s_m_source_file>  (1) 
generated_generic_title2_ligand_DiffSBDD_2026-06-23_prepared.sdf

>  <GenAI_Model>  (1) 
DiffSBDD

>  <Protein>  (1) 
generic_title2

$$$$
DiffSBDD_72
     RDKit          3D

  0  0  0  0  0  0  0  0  0  0999 V3000
M  V30 BEGIN CTAB
M  V30 COUNTS 47 49 0 0 1
M  V30 BEGIN ATOM
M  V30 1 C 12.130661 7.497689 -3.135629 0
M  V30 2 C 12.135125 8.203910 -7.477298 0
M  V30 3 C 9.705238 7.525903 -6.699730 0
M  V30 4 C 11.416281 8.470799 -5.084147 0
M  V30 5 C 12.414752 6.399155 -2.171265 0
M  V30 6 C 11.571882 9.590224 -4.305655 0
M  V30 7 C 6.961928 7.121415 -14.511217 0
M  V30 8 C 5.767839 6.900054 -13.597269 0
M  V30 9 C 10.949951 8.423898 -6.514125 0 CFG=1
M  V30 10 N 11.771216 7.293849 -4.398211 0
M  V30 11 C 8.942486 6.990144 -11.725167 0
M  V30 12 C 9.710877 7.352709 -9.313316 0 CFG=2
M  V30 13 C 9.657597 6.631547 -7.946585 0
M  V30 14 C 7.785711 6.307690 -12.478747 0 CFG=1
M  V30 15 C 6.414720 6.950583 -12.232129 0
M  V30 16 S 12.175407 9.189204 -2.713764 0
M  V30 17 O 8.004853 6.390218 -13.886419 0
M  V30 18 O 9.375413 5.165359 -10.272880 0 CHG=-1
M  V30 19 N 8.975412 6.454551 -10.312425 0 CFG=2 CHG=1
M  V30 20 C 11.140501 7.687801 -9.791753 0
M  V30 21 C 11.888302 8.690485 -8.912945 0
M  V30 22 H 12.975419 8.792273 -7.107540 0
M  V30 23 H 12.473371 7.171416 -7.460178 0
M  V30 24 H 9.613869 6.849985 -5.848504 0
M  V30 25 H 8.806111 8.142708 -6.656993 0
M  V30 26 H 11.473169 5.990233 -1.804689 0
M  V30 27 H 12.975384 5.597037 -2.645377 0
M  V30 28 H 12.975406 6.774025 -1.318800 0
M  V30 29 H 11.375409 10.614698 -4.574351 0
M  V30 30 H 7.243506 8.174226 -14.547916 0
M  V30 31 H 6.781790 6.780725 -15.531081 0
M  V30 32 H 4.986662 7.648927 -13.725268 0
M  V30 33 H 5.335058 5.914808 -13.773691 0
M  V30 34 H 10.596246 9.429559 -6.742262 0
M  V30 35 H 8.820295 8.073077 -11.678920 0
M  V30 36 H 9.907477 6.752940 -12.173727 0
M  V30 37 H 9.120817 8.269268 -9.274407 0
M  V30 38 H 8.718104 6.080843 -7.880062 0
M  V30 39 H 10.436605 5.869536 -7.895841 0
M  V30 40 H 7.742018 5.242147 -12.248180 0
M  V30 41 H 5.837630 6.434194 -11.464733 0
M  V30 42 H 6.520888 7.990498 -11.923436 0
M  V30 43 H 11.112844 8.110753 -10.792299 0
M  V30 44 H 11.738938 6.790227 -9.862091 0
M  V30 45 H 11.375427 9.650272 -8.918411 0
M  V30 46 H 12.856133 8.876868 -9.379836 0
M  V30 47 H 7.982877 6.553990 -9.987301 0
M  V30 END ATOM
M  V30 BEGIN BOND
M  V30 1 1 5 1
M  V30 2 2 6 4
M  V30 3 1 8 7
M  V30 4 1 9 2
M  V30 5 1 9 3
M  V30 6 1 9 4
M  V30 7 2 10 1
M  V30 8 1 10 4
M  V30 9 1 13 3
M  V30 10 1 13 12
M  V30 11 1 14 11
M  V30 12 1 15 8
M  V30 13 1 15 14
M  V30 14 1 16 1
M  V30 15 1 16 6
M  V30 16 1 17 7
M  V30 17 1 17 14
M  V30 18 1 19 11
M  V30 19 1 19 12
M  V30 20 1 19 18
M  V30 21 1 20 12
M  V30 22 1 21 2
M  V30 23 1 21 20
M  V30 24 1 22 2
M  V30 25 1 23 2
M  V30 26 1 24 3
M  V30 27 1 25 3
M  V30 28 1 26 5
M  V30 29 1 27 5
M  V30 30 1 28 5
M  V30 31 1 29 6
M  V30 32 1 30 7
M  V30 33 1 31 7
M  V30 34 1 32 8
M  V30 35 1 33 8
M  V30 36 1 9 34 CFG=3
M  V30 37 1 35 11
M  V30 38 1 36 11
M  V30 39 1 12 37 CFG=1
M  V30 40 1 38 13
M  V30 41 1 39 13
M  V30 42 1 14 40 CFG=1
M  V30 43 1 41 15
M  V30 44 1 42 15
M  V30 45 1 43 20
M  V30 46 1 44 20
M  V30 47 1 45 21
M  V30 48 1 46 21
M  V30 49 1 19 47 CFG=1
M  V30 END BOND
M  V30 END CTAB
M  END
>  <i_epik_Tot_Q>  (1) 
0

>  <i_epik_Tot_abs_Q>  (1) 
2

>  <i_i_glide_confnum>  (1) 
340

>  <i_i_glide_lignum>  (1) 
119

>  <i_i_glide_posenum>  (1) 
278

>  <i_i_glide_rotatable_bonds>  (1) 
4

>  <i_lp_mmshare_version>  (1) 
72125

>  <i_m_source_file_index>  (1) 
73

>  <i_f3d_flags>  (1) 
0

>  <num_sample>  (1) 
100

>  <b_lp_Chiralities_Consistent>  (1) 
1

>  <r_epik_Charging_Adjusted_Penalty>  (1) 
0.52782075658533367

>  <r_epik_Ionization_Penalty>  (1) 
0.0061787587503483845

>  <r_epik_Ionization_Penalty_Charging>  (1) 
0.0058496280333447418

>  <r_epik_Ionization_Penalty_Neutral>  (1) 
0.00032913071700364294

>  <r_epik_State_Penalty>  (1) 
0.52197112855198891

>  <r_glide_ring_energy>  (1) 
0.48023684277879242

>  <r_i_docking_score>  (1) 
-5.9164947930362164

>  <r_i_glide_ecoul>  (1) 
-3.2440267562005918

>  <r_i_glide_eff_state_penalty>  (1) 
0.52197112855198891

>  <r_i_glide_einternal>  (1) 
9.1531647914977796

>  <r_i_glide_emodel>  (1) 
-45.164826902707254

>  <r_i_glide_emodel_strain>  (1) 
0.2689421091247155

>  <r_i_glide_energy>  (1) 
-36.083295956524609

>  <r_i_glide_erotb>  (1) 
0.76903323708162985

>  <r_i_glide_esite>  (1) 
-0.10000000000000001

>  <r_i_glide_evdw>  (1) 
-32.839269200324019

>  <r_i_glide_gscore>  (1) 
-6.4384659215882056

>  <r_i_glide_gscore_strain>  (1) 
0

>  <r_i_glide_hbond>  (1) 
-0.12084993450975408

>  <r_i_glide_ligand_efficiency>  (1) 
-0.28173784728743889

>  <r_i_glide_ligand_efficiency_ln>  (1) 
-1.4628413821747737

>  <r_i_glide_ligand_efficiency_sa>  (1) 
-0.77729335828288737

>  <r_i_glide_lipo>  (1) 
-2.6657759779865189

>  <r_i_glide_metal>  (1) 
-0

>  <r_i_glide_rewards>  (1) 
-2.192305772727273

>  <r_lp_Energy>  (1) 
13.512606

>  <s_epik_cmdline>  (1) 
J2VwaWtfcHl0aG9uJywgJy1waHQnLCAnMS4wJywgJy1waCcsICc3LjQnLCAnLXRuJywgJzgnLCAnLW1hJywgJzUwMCcsICctaW1hZScsICc8aW5maWxlLm1hZT4nLCAnLW9tYWUnLCAnPG91dGZpbGUubWFlPic=

>  <s_epik_input>  (1) 
W0NIM11jMW5jKFtjSF1zMSlbQ0BIXTJbQ0gyXVtDSDJdW0NIMl1bQ0BIXShbQ0gyXVtDSDJdMilOKFtPSF0pW0NIMl1bQ0BIXTNbQ0gyXVtDSDJdW0NIMl1PMw==

>  <s_glide_docking_method>  (1) 
confgen

>  <s_i_glide_gridfile>  (1) 
gpcr_drd2_6luq_protein_autoprepared_prepared

>  <s_lp_Force_Field>  (1) 
S-OPLS

>  <s_lp_Variant>  (1) 
DiffSBDD_72-3

>  <s_m_source_file>  (1) 
generated_generic_title2_ligand_DiffSBDD_2026-06-23_prepared.sdf

>  <GenAI_Model>  (1) 
DiffSBDD

>  <Protein>  (1) 
generic_title2

$$$$
DiffSBDD_14
     RDKit          3D

  0  0  0  0  0  0  0  0  0  0999 V3000
M  V30 BEGIN CTAB
M  V30 COUNTS 46 47 0 0 1
M  V30 BEGIN ATOM
M  V30 1 N 9.749185 6.472985 -10.526597 0
M  V30 2 C 8.514446 4.783074 -14.259627 0
M  V30 3 N 9.071612 4.360089 -12.979924 0
M  V30 4 C 11.163705 9.220707 -5.770810 0
M  V30 5 C 8.968896 6.459510 -11.669053 0
M  V30 6 C 7.081546 5.262921 -13.970403 0
M  V30 7 C 11.000238 7.796211 -8.904494 0
M  V30 8 C 6.207776 3.730721 -12.166681 0
M  V30 9 C 11.751351 9.108248 -4.496916 0
M  V30 10 C 10.676410 8.072186 -6.425770 0
M  V30 11 C 11.853553 7.844589 -3.873125 0
M  V30 12 C 11.375410 6.693131 -4.545497 0
M  V30 13 C 10.788796 6.811762 -5.814653 0
M  V30 14 C 10.254091 7.590230 -10.192277 0
M  V30 15 O 8.743804 7.400410 -12.435538 0
M  V30 16 C 5.962941 6.180258 -11.856499 0
M  V30 17 C 10.030009 8.188846 -7.784273 0
M  V30 18 N 12.575410 8.790227 -1.676492 0
M  V30 19 N 12.416356 7.743180 -2.585531 0
M  V30 20 C 8.334250 5.075365 -11.934235 0 CFG=1
M  V30 21 C 6.876893 5.091156 -12.457909 0
M  V30 22 O 12.267757 6.488173 -1.985054 0
M  V30 23 H 9.117244 5.590227 -14.674773 0
M  V30 24 H 8.535019 3.956225 -14.969574 0
M  V30 25 H 10.077585 4.469034 -12.927323 0
M  V30 26 H 11.080306 10.188843 -6.241984 0
M  V30 27 H 6.989216 6.310990 -14.258823 0
M  V30 28 H 6.342762 4.711660 -14.553539 0
M  V30 29 H 11.770555 8.556286 -9.037591 0
M  V30 30 H 11.507604 6.864681 -8.652495 0
M  V30 31 H 6.800348 2.894412 -12.539089 0
M  V30 32 H 6.068779 3.586083 -11.094642 0
M  V30 33 H 5.227597 3.666965 -12.638882 0
M  V30 34 H 12.115011 9.990227 -3.993842 0
M  V30 35 H 11.447425 5.720504 -4.084177 0
M  V30 36 H 10.416615 5.933337 -6.319993 0
M  V30 37 H 10.173126 8.481287 -10.820366 0
M  V30 38 H 6.306779 7.197153 -12.036432 0
M  V30 39 H 4.975410 6.120022 -12.297386 0
M  V30 40 H 5.854722 6.054868 -10.779082 0
M  V30 41 H 9.160370 7.527027 -7.787648 0
M  V30 42 H 9.630696 9.190227 -7.936987 0
M  V30 43 H 12.737263 8.408764 -0.747680 0
M  V30 44 H 13.375087 9.366809 -1.937863 0
M  V30 45 H 8.389218 4.503184 -11.006441 0
M  V30 46 H 13.067965 6.017793 -2.162527 0
M  V30 END ATOM
M  V30 BEGIN BOND
M  V30 1 1 3 2
M  V30 2 1 5 1
M  V30 3 1 6 2
M  V30 4 2 9 4
M  V30 5 1 10 4
M  V30 6 1 11 9
M  V30 7 2 12 11
M  V30 8 2 13 10
M  V30 9 1 13 12
M  V30 10 2 14 1
M  V30 11 1 14 7
M  V30 12 2 15 5
M  V30 13 1 17 7
M  V30 14 1 17 10
M  V30 15 1 19 11
M  V30 16 1 19 18
M  V30 17 1 20 3
M  V30 18 1 20 5
M  V30 19 1 21 6
M  V30 20 1 21 8
M  V30 21 1 21 16
M  V30 22 1 21 20
M  V30 23 1 22 19
M  V30 24 1 23 2
M  V30 25 1 24 2
M  V30 26 1 25 3
M  V30 27 1 26 4
M  V30 28 1 27 6
M  V30 29 1 28 6
M  V30 30 1 29 7
M  V30 31 1 30 7
M  V30 32 1 31 8
M  V30 33 1 32 8
M  V30 34 1 33 8
M  V30 35 1 34 9
M  V30 36 1 35 12
M  V30 37 1 36 13
M  V30 38 1 37 14
M  V30 39 1 38 16
M  V30 40 1 39 16
M  V30 41 1 40 16
M  V30 42 1 41 17
M  V30 43 1 42 17
M  V30 44 1 43 18
M  V30 45 1 44 18
M  V30 46 1 20 45 CFG=1
M  V30 47 1 46 22
M  V30 END BOND
M  V30 END CTAB
M  END
>  <i_epik_Tot_Q>  (1) 
0

>  <i_epik_Tot_abs_Q>  (1) 
0

>  <i_i_glide_confnum>  (1) 
269

>  <i_i_glide_lignum>  (1) 
26

>  <i_i_glide_posenum>  (1) 
338

>  <i_i_glide_rotatable_bonds>  (1) 
7

>  <i_lp_mmshare_version>  (1) 
72125

>  <i_m_source_file_index>  (1) 
15

>  <i_f3d_flags>  (1) 
0

>  <num_sample>  (1) 
100

>  <b_lp_Chiralities_Consistent>  (1) 
1

>  <r_epik_Charging_Adjusted_Penalty>  (1) 
0.22580691505965048

>  <r_epik_Ionization_Penalty>  (1) 
0.22909364713476901

>  <r_epik_Ionization_Penalty_Charging>  (1) 
0

>  <r_epik_Ionization_Penalty_Neutral>  (1) 
0.22909364713476901

>  <r_epik_State_Penalty>  (1) 
0.22580691505965048

>  <r_glide_ring_energy>  (1) 
1.0308310200018396

>  <r_i_docking_score>  (1) 
-5.9163211510114673

>  <r_i_glide_ecoul>  (1) 
-1.3913909076987658

>  <r_i_glide_eff_state_penalty>  (1) 
0.22580691505965048

>  <r_i_glide_einternal>  (1) 
1.8619887219440372

>  <r_i_glide_emodel>  (1) 
-54.008903989666301

>  <r_i_glide_emodel_strain>  (1) 
0.044297621549368671

>  <r_i_glide_energy>  (1) 
-40.203288793695926

>  <r_i_glide_erotb>  (1) 
1.1941897600298523

>  <r_i_glide_esite>  (1) 
-0.089698749963830385

>  <r_i_glide_evdw>  (1) 
-38.811897885997162

>  <r_i_glide_gscore>  (1) 
-6.1421280660711179

>  <r_i_glide_gscore_strain>  (1) 
0

>  <r_i_glide_hbond>  (1) 
-0.36698092866015608

>  <r_i_glide_ligand_efficiency>  (1) 
-0.2689236886823394

>  <r_i_glide_ligand_efficiency_ln>  (1) 
-1.4461646923646048

>  <r_i_glide_ligand_efficiency_sa>  (1) 
-0.75353475263284009

>  <r_i_glide_lipo>  (1) 
-2.2217109742036492

>  <r_i_glide_metal>  (1) 
-0

>  <r_i_glide_rewards>  (1) 
-2.5086236428186606

>  <r_lp_Energy>  (1) 
30.755288999999998

>  <s_epik_Chemistry_Notes>  (1) 
This compound has an imine and may undergo hydrolysis. This compound has a N-S or N-O group and may undergo hydrolysis at high or low pH.

>  <s_epik_cmdline>  (1) 
J2VwaWtfcHl0aG9uJywgJy1waHQnLCAnMS4wJywgJy1waCcsICc3LjQnLCAnLXRuJywgJzgnLCAnLW1hJywgJzUwMCcsICctaW1hZScsICc8aW5maWxlLm1hZT4nLCAnLW9tYWUnLCAnPG91dGZpbGUubWFlPic=

>  <s_epik_input>  (1) 
W0NIM11DMShbQ0gzXSlbQ0gyXVtDSDJdW05IXVtDQEhdMUMoPU8pL049W0NIXS9bQ0gyXVtDSDJdYzJbY0hdW2NIXWMoW2NIXVtjSF0yKU4oW05IMl0pW09IXQ==

>  <s_glide_docking_method>  (1) 
confgen

>  <s_i_glide_gridfile>  (1) 
gpcr_drd2_6luq_protein_autoprepared_prepared

>  <s_lp_Force_Field>  (1) 
S-OPLS

>  <s_lp_Variant>  (1) 
DiffSBDD_14-1

>  <s_m_source_file>  (1) 
generated_generic_title2_ligand_DiffSBDD_2026-06-23_prepared.sdf

>  <GenAI_Model>  (1) 
DiffSBDD

>  <Protein>  (1) 
generic_title2

$$$$
DiffSBDD_11
     RDKit          3D

  0  0  0  0  0  0  0  0  0  0999 V3000
M  V30 BEGIN CTAB
M  V30 COUNTS 44 44 0 0 1
M  V30 BEGIN ATOM
M  V30 1 C 6.518348 5.372227 -11.214920 0 CFG=1
M  V30 2 C 11.309647 7.049178 -4.852198 0
M  V30 3 C 7.250922 4.891711 -9.965762 0
M  V30 4 C 9.603138 6.668424 -8.286123 0
M  V30 5 C 11.775857 9.263232 -2.557266 0
M  V30 6 C 10.646234 7.112949 -7.238079 0 CFG=1
M  V30 7 C 11.582228 9.189131 -6.023529 0
M  V30 8 C 9.580087 5.154365 -8.544417 0
M  V30 9 C 10.869654 8.644630 -7.255143 0 CFG=1
M  V30 10 C 6.279608 4.245565 -12.230875 0
M  V30 11 N 5.263745 5.990229 -10.785029 0 CHG=1
M  V30 12 N 11.775411 8.461754 -4.955627 0 CHG=1
M  V30 13 C 12.582485 8.967712 -3.816551 0
M  V30 14 C 11.711135 9.046565 -8.488419 0
M  V30 15 C 10.226620 6.667476 -5.848367 0
M  V30 16 S 9.019829 4.790237 -10.234768 0
M  V30 17 H 7.097306 6.164751 -11.691801 0
M  V30 18 H 12.175409 6.409240 -5.000304 0
M  V30 19 H 10.975402 6.872213 -3.831578 0
M  V30 20 H 7.093960 5.590230 -9.150254 0
M  V30 21 H 6.861438 3.943145 -9.604099 0
M  V30 22 H 8.610302 7.004026 -7.985034 0
M  V30 23 H 9.797310 7.163621 -9.235027 0
M  V30 24 H 12.404189 9.712009 -1.791665 0
M  V30 25 H 11.375411 8.351726 -2.118284 0
M  V30 26 H 10.975407 9.963712 -2.784942 0
M  V30 27 H 11.597251 6.632191 -7.472963 0
M  V30 28 H 11.958852 10.206480 -6.008953 0
M  V30 29 H 10.575394 4.737517 -8.409088 0
M  V30 30 H 8.940015 4.644597 -7.824073 0
M  V30 31 H 7.227569 3.880509 -12.629575 0
M  V30 32 H 5.680883 4.584543 -13.077263 0
M  V30 33 H 5.775378 3.395019 -11.774291 0
M  V30 34 H 4.729284 5.347235 -10.216702 0
M  V30 35 H 4.729063 6.318870 -11.574939 0
M  V30 36 H 13.343333 8.214569 -3.607008 0
M  V30 37 H 13.110283 9.866487 -4.138387 0
M  V30 38 H 11.775407 10.121727 -8.607155 0
M  V30 39 H 11.288636 8.681177 -9.422606 0
M  V30 40 H 12.729696 8.659349 -8.427912 0
M  V30 41 H 9.283898 7.135964 -5.585039 0
M  V30 42 H 10.078505 5.592265 -5.826549 0
M  V30 43 H 5.549043 6.784498 -10.214891 0
M  V30 44 H 9.899241 9.139976 -7.306508 0
M  V30 END ATOM
M  V30 BEGIN BOND
M  V30 1 1 3 1
M  V30 2 1 6 4
M  V30 3 1 8 4
M  V30 4 1 9 6
M  V30 5 1 9 7
M  V30 6 1 10 1
M  V30 7 1 11 1
M  V30 8 1 12 2
M  V30 9 2 12 7
M  V30 10 1 13 5
M  V30 11 1 13 12
M  V30 12 1 14 9
M  V30 13 1 15 2
M  V30 14 1 15 6
M  V30 15 1 16 3
M  V30 16 1 16 8
M  V30 17 1 1 17 CFG=3
M  V30 18 1 18 2
M  V30 19 1 19 2
M  V30 20 1 20 3
M  V30 21 1 21 3
M  V30 22 1 22 4
M  V30 23 1 23 4
M  V30 24 1 24 5
M  V30 25 1 25 5
M  V30 26 1 26 5
M  V30 27 1 6 27 CFG=3
M  V30 28 1 28 7
M  V30 29 1 29 8
M  V30 30 1 30 8
M  V30 31 1 31 10
M  V30 32 1 32 10
M  V30 33 1 33 10
M  V30 34 1 34 11
M  V30 35 1 35 11
M  V30 36 1 36 13
M  V30 37 1 37 13
M  V30 38 1 38 14
M  V30 39 1 39 14
M  V30 40 1 40 14
M  V30 41 1 41 15
M  V30 42 1 42 15
M  V30 43 1 43 11
M  V30 44 1 9 44 CFG=3
M  V30 END BOND
M  V30 END CTAB
M  END
>  <i_epik_Tot_Q>  (1) 
2

>  <i_epik_Tot_abs_Q>  (1) 
2

>  <i_i_glide_confnum>  (1) 
56

>  <i_i_glide_lignum>  (1) 
21

>  <i_i_glide_posenum>  (1) 
4

>  <i_i_glide_rotatable_bonds>  (1) 
6

>  <i_lp_mmshare_version>  (1) 
72125

>  <i_m_source_file_index>  (1) 
12

>  <i_f3d_flags>  (1) 
0

>  <num_sample>  (1) 
100

>  <b_lp_Chiralities_Consistent>  (1) 
1

>  <r_epik_Charging_Adjusted_Penalty>  (1) 
0.13380573077515515

>  <r_epik_Ionization_Penalty>  (1) 
0.13380575400753034

>  <r_epik_Ionization_Penalty_Charging>  (1) 
0.0076430572427279801

>  <r_epik_Ionization_Penalty_Neutral>  (1) 
0.12616269676480235

>  <r_epik_State_Penalty>  (1) 
0.12616267353242716

>  <r_glide_ring_energy>  (1) 
0

>  <r_i_docking_score>  (1) 
-5.9114086058326993

>  <r_i_glide_ecoul>  (1) 
-5.7966254351394308

>  <r_i_glide_eff_state_penalty>  (1) 
0.12616267353242716

>  <r_i_glide_einternal>  (1) 
3.412502231393407

>  <r_i_glide_emodel>  (1) 
-42.32840845671668

>  <r_i_glide_emodel_strain>  (1) 
0.41820155033136786

>  <r_i_glide_energy>  (1) 
-28.828835760755922

>  <r_i_glide_erotb>  (1) 
1.1639209444696645

>  <r_i_glide_esite>  (1) 
-0.080284248220266918

>  <r_i_glide_evdw>  (1) 
-23.032210325616493

>  <r_i_glide_gscore>  (1) 
-6.0375712793651264

>  <r_i_glide_gscore_strain>  (1) 
0

>  <r_i_glide_hbond>  (1) 
-0.20000000000000001

>  <r_i_glide_ligand_efficiency>  (1) 
-0.36946303786454371

>  <r_i_glide_ligand_efficiency_ln>  (1) 
-1.566936934043291

>  <r_i_glide_ligand_efficiency_sa>  (1) 
-0.93098851712729047

>  <r_i_glide_lipo>  (1) 
-1.8873975449892439

>  <r_i_glide_metal>  (1) 
-0

>  <r_i_glide_rewards>  (1) 
-3.0127060990735406

>  <r_lp_Energy>  (1) 
22.734718999999998

>  <s_epik_Chemistry_Notes>  (1) 
This compound has an imine and may undergo hydrolysis.

>  <s_epik_cmdline>  (1) 
J2VwaWtfcHl0aG9uJywgJy1waHQnLCAnMS4wJywgJy1waCcsICc3LjQnLCAnLXRuJywgJzgnLCAnLW1hJywgJzUwMCcsICctaW1hZScsICc8aW5maWxlLm1hZT4nLCAnLW9tYWUnLCAnPG91dGZpbGUubWFlPic=

>  <s_epik_input>  (1) 
W0NIM11bQ0BASF0oW05IMl0pW0NIMl1TW0NIMl1bQ0gyXVtDQEhdMUMoW0NIM10pPVtDSF1OKFtDSDJdW0NIMl0xKVtDSDJdW0NIM10=

>  <s_glide_docking_method>  (1) 
confgen

>  <s_i_glide_gridfile>  (1) 
gpcr_drd2_6luq_protein_autoprepared_prepared

>  <s_lp_Force_Field>  (1) 
S-OPLS

>  <s_lp_Variant>  (1) 
DiffSBDD_11-1

>  <s_m_source_file>  (1) 
generated_generic_title2_ligand_DiffSBDD_2026-06-23_prepared.sdf

>  <GenAI_Model>  (1) 
DiffSBDD

>  <Protein>  (1) 
generic_title2

$$$$
DiffSBDD_22
     RDKit          3D

  0  0  0  0  0  0  0  0  0  0999 V3000
M  V30 BEGIN CTAB
M  V30 COUNTS 29 30 0 0 1
M  V30 BEGIN ATOM
M  V30 1 C 10.295627 7.050181 -8.612325 0 CFG=1
M  V30 2 N 8.975410 6.390226 -8.612955 0 CHG=1
M  V30 3 C 8.883087 4.824643 -10.577486 0
M  V30 4 C 12.226349 7.569226 -2.669192 0
M  V30 5 C 11.145170 7.247283 -7.366519 0 CFG=2
M  V30 6 C 11.775401 6.683493 -3.612791 0
M  V30 7 C 8.950024 4.978329 -9.050032 0
M  V30 8 C 10.841446 6.580704 -6.036527 0
M  V30 9 C 11.375370 7.320367 -4.840459 0
M  V30 10 O 10.648617 7.345287 -9.945318 0
M  V30 11 C 10.257098 8.356021 -7.871305 0
M  V30 12 S 12.175412 9.190227 -3.254141 0
M  V30 13 C 11.541608 8.687875 -4.785029 0
M  V30 14 H 8.620386 6.421099 -7.668196 0
M  V30 15 H 8.796057 3.776137 -10.859441 0
M  V30 16 H 8.020602 5.350829 -10.988646 0
M  V30 17 H 9.775398 5.206473 -11.071234 0
M  V30 18 H 12.581721 7.361429 -1.671189 0
M  V30 19 H 12.210859 7.370767 -7.549131 0
M  V30 20 H 11.715438 5.614206 -3.472577 0
M  V30 21 H 9.806171 4.441800 -8.639952 0
M  V30 22 H 8.058200 4.523079 -8.617392 0
M  V30 23 H 9.766329 6.434455 -5.929357 0
M  V30 24 H 11.288032 5.590231 -6.071889 0
M  V30 25 H 11.542785 7.078415 -10.093967 0
M  V30 26 H 10.777358 9.190234 -8.322017 0
M  V30 27 H 9.367446 8.606735 -7.294322 0
M  V30 28 H 11.328457 9.420638 -5.549040 0
M  V30 29 H 8.311656 6.940949 -9.166646 0
M  V30 END ATOM
M  V30 BEGIN BOND
M  V30 1 1 2 1
M  V30 2 1 5 1
M  V30 3 2 6 4
M  V30 4 1 7 2
M  V30 5 1 7 3
M  V30 6 1 8 5
M  V30 7 1 9 6
M  V30 8 1 9 8
M  V30 9 1 1 10 CFG=3
M  V30 10 1 11 1
M  V30 11 1 11 5
M  V30 12 1 12 4
M  V30 13 2 13 9
M  V30 14 1 13 12
M  V30 15 1 14 2
M  V30 16 1 15 3
M  V30 17 1 16 3
M  V30 18 1 17 3
M  V30 19 1 18 4
M  V30 20 1 5 19 CFG=3
M  V30 21 1 20 6
M  V30 22 1 21 7
M  V30 23 1 22 7
M  V30 24 1 23 8
M  V30 25 1 24 8
M  V30 26 1 25 10
M  V30 27 1 26 11
M  V30 28 1 27 11
M  V30 29 1 28 13
M  V30 30 1 29 2
M  V30 END BOND
M  V30 END CTAB
M  END
>  <i_epik_Tot_Q>  (1) 
1

>  <i_epik_Tot_abs_Q>  (1) 
1

>  <i_i_glide_confnum>  (1) 
12

>  <i_i_glide_lignum>  (1) 
40

>  <i_i_glide_posenum>  (1) 
221

>  <i_i_glide_rotatable_bonds>  (1) 
5

>  <i_lp_mmshare_version>  (1) 
72125

>  <i_m_source_file_index>  (1) 
23

>  <i_f3d_flags>  (1) 
0

>  <num_sample>  (1) 
100

>  <b_lp_Chiralities_Consistent>  (1) 
1

>  <r_epik_Charging_Adjusted_Penalty>  (1) 
1.3614070434525585

>  <r_epik_Ionization_Penalty>  (1) 
0.68090079983986818

>  <r_epik_Ionization_Penalty_Charging>  (1) 
0.68070352172627924

>  <r_epik_Ionization_Penalty_Neutral>  (1) 
0.00019727811358890825

>  <r_epik_State_Penalty>  (1) 
0.68070352172627924

>  <r_glide_ring_energy>  (1) 
0

>  <r_i_docking_score>  (1) 
-5.9099475129774959

>  <r_i_glide_ecoul>  (1) 
-6.4097129215164808

>  <r_i_glide_eff_state_penalty>  (1) 
0.68070352172627924

>  <r_i_glide_einternal>  (1) 
2.6926803995026423

>  <r_i_glide_emodel>  (1) 
-47.875328840184878

>  <r_i_glide_emodel_strain>  (1) 
0.32599477652304643

>  <r_i_glide_energy>  (1) 
-30.486378420684147

>  <r_i_glide_erotb>  (1) 
0.8697133986629777

>  <r_i_glide_esite>  (1) 
-0.1424410515088311

>  <r_i_glide_evdw>  (1) 
-24.076665499167667

>  <r_i_glide_gscore>  (1) 
-6.5906510347037752

>  <r_i_glide_gscore_strain>  (1) 
0

>  <r_i_glide_hbond>  (1) 
-0.20000000000000001

>  <r_i_glide_ligand_efficiency>  (1) 
-0.45461134715211504

>  <r_i_glide_ligand_efficiency_ln>  (1) 
-1.6577928380967919

>  <r_i_glide_ligand_efficiency_sa>  (1) 
-1.0689434299902316

>  <r_i_glide_lipo>  (1) 
-1.9436048582728389

>  <r_i_glide_metal>  (1) 
-0

>  <r_i_glide_rewards>  (1) 
-3.009028310399227

>  <r_lp_Energy>  (1) 
5.1831209999999999

>  <s_epik_cmdline>  (1) 
J2VwaWtfcHl0aG9uJywgJy1waHQnLCAnMS4wJywgJy1waCcsICc3LjQnLCAnLXRuJywgJzgnLCAnLW1hJywgJzUwMCcsICctaW1hZScsICc8aW5maWxlLm1hZT4nLCAnLW9tYWUnLCAnPG91dGZpbGUubWFlPic=

>  <s_epik_input>  (1) 
W0NIM11bQ0gyXVtOSF1bQ0BdMShbT0hdKVtDQEBIXShbQ0gyXTEpW0NIMl1jMltjSF1bY0hdc1tjSF0y

>  <s_glide_docking_method>  (1) 
confgen

>  <s_i_glide_gridfile>  (1) 
gpcr_drd2_6luq_protein_autoprepared_prepared

>  <s_lp_Force_Field>  (1) 
S-OPLS

>  <s_lp_Variant>  (1) 
DiffSBDD_22-2

>  <s_m_source_file>  (1) 
generated_generic_title2_ligand_DiffSBDD_2026-06-23_prepared.sdf

>  <GenAI_Model>  (1) 
DiffSBDD

>  <Protein>  (1) 
generic_title2

$$$$
DiffSBDD_78
     RDKit          3D

  0  0  0  0  0  0  0  0  0  0999 V3000
M  V30 BEGIN CTAB
M  V30 COUNTS 81 85 0 0 1
M  V30 BEGIN ATOM
M  V30 1 C 4.991615 7.754189 -16.697966 0 CFG=2
M  V30 2 C 5.235698 7.960973 -15.223332 0
M  V30 3 C 5.869617 3.255007 -12.524145 0 CFG=1
M  V30 4 C 7.693355 4.578298 -10.958277 0 CFG=2
M  V30 5 C 3.518244 7.590535 -16.982301 0
M  V30 6 N 8.634795 5.990093 -9.116199 0 CHG=1
M  V30 7 C 6.519732 5.398041 -11.509884 0 CFG=1
M  V30 8 C 7.289948 4.835429 -13.896167 0 CFG=1
M  V30 9 N 5.525406 6.491555 -17.238327 0 CFG=1 CHG=1
M  V30 10 C 4.902475 6.386640 -18.568294 0
M  V30 11 N 8.498187 5.178513 -14.719347 0 CFG=1 CHG=1
M  V30 12 C 7.682481 2.171522 -13.848863 0
M  V30 13 C 8.881145 5.383571 -10.439798 0
M  V30 14 C 9.665414 6.723980 -7.045338 0
M  V30 15 O 8.140261 3.664033 -11.987396 0
M  V30 16 C 9.775456 5.130484 -13.987477 0
M  V30 17 C 11.010374 7.072128 -6.397373 0 CFG=1
M  V30 18 C 4.625971 4.035657 -12.917329 0
M  V30 19 C 7.260394 3.466970 -13.115472 0 CFG=2
M  V30 20 F 11.789444 6.001340 -6.506618 0
M  V30 21 C 3.534386 7.069448 -18.385031 0
M  V30 22 C 6.672855 1.531806 -14.810167 0
M  V30 23 O 10.356812 7.648662 -9.132294 0
M  V30 24 C 6.965597 5.973099 -12.868761 0
M  V30 25 C 11.627627 8.287875 -7.128288 0 CFG=1
M  V30 26 C 7.397041 4.835615 -17.027650 0
M  V30 27 C 10.007254 6.454052 -8.510311 0 CFG=2
M  V30 28 C 6.987499 6.308859 -17.170761 0
M  V30 29 C 8.618344 4.615508 -16.107092 0
M  V30 30 C 10.897343 7.325787 -4.903784 0
M  V30 31 C 11.609919 8.142775 -8.665156 0
M  V30 32 C 5.394399 4.390214 -11.655612 0 CFG=1
M  V30 33 F 10.974256 9.391072 -6.784613 0
M  V30 34 H 5.385128 8.598925 -17.262603 0
M  V30 35 H 4.576099 8.745415 -14.863617 0
M  V30 36 H 4.975507 7.047680 -14.707884 0
M  V30 37 H 6.266774 8.233853 -15.000165 0
M  V30 38 H 5.775430 2.272515 -12.067660 0
M  V30 39 H 7.327199 3.990330 -10.117647 0
M  V30 40 H 2.894569 8.464158 -16.821163 0
M  V30 41 H 3.088774 6.794560 -16.385037 0
M  V30 42 H 7.973303 6.777111 -9.184546 0
M  V30 43 H 6.206713 6.182820 -10.822252 0
M  V30 44 H 6.477835 4.819264 -14.610811 0
M  V30 45 H 5.493391 6.935480 -19.303879 0
M  V30 46 H 4.833058 5.352015 -18.903170 0
M  V30 47 H 7.946056 1.422203 -13.100334 0
M  V30 48 H 8.575381 2.336204 -14.411466 0
M  V30 49 H 9.719621 4.692068 -10.352049 0
M  V30 50 H 9.198377 6.164852 -11.123698 0
M  V30 51 H 8.945020 7.541103 -6.966673 0
M  V30 52 H 9.228459 5.835269 -6.590181 0
M  V30 53 H 9.954730 4.148499 -13.559322 0
M  V30 54 H 10.591802 5.366841 -14.665534 0
M  V30 55 H 9.821421 5.866038 -13.189446 0
M  V30 56 H 3.647131 3.590237 -12.785109 0
M  V30 57 H 4.628066 4.780185 -13.704521 0
M  V30 58 H 3.383716 7.892372 -19.089549 0
M  V30 59 H 2.707152 6.370399 -18.385036 0
M  V30 60 H 7.094465 0.624553 -15.244770 0
M  V30 61 H 6.429918 2.196900 -15.634274 0
M  V30 62 H 5.755867 1.233475 -14.302525 0
M  V30 63 H 6.172028 6.617977 -13.195933 0
M  V30 64 H 7.802274 6.654773 -12.732497 0
M  V30 65 H 12.637461 8.482656 -6.790434 0
M  V30 66 H 7.608587 4.428727 -18.017693 0
M  V30 67 H 6.575720 4.241101 -16.653453 0
M  V30 68 H 10.756641 5.674110 -8.636914 0
M  V30 69 H 7.313335 6.790245 -16.258790 0
M  V30 70 H 7.500902 6.795844 -17.999934 0
M  V30 71 H 9.470562 5.096042 -16.591232 0
M  V30 72 H 8.866748 3.557825 -16.086197 0
M  V30 73 H 10.311543 8.230038 -4.785023 0
M  V30 74 H 10.401484 6.501590 -4.388904 0
M  V30 75 H 11.870544 7.482224 -4.438299 0
M  V30 76 H 12.400005 7.466341 -8.987199 0
M  V30 77 H 11.817999 9.102774 -9.138875 0
M  V30 78 H 4.975439 4.077988 -10.702435 0
M  V30 79 H 5.109414 5.766562 -16.671388 0
M  V30 80 H 8.381955 6.165881 -14.893243 0
M  V30 81 H 8.217275 5.296282 -8.513517 0
M  V30 END ATOM
M  V30 BEGIN BOND
M  V30 1 1 2 1
M  V30 2 1 5 1
M  V30 3 1 7 4
M  V30 4 1 9 1
M  V30 5 1 10 9
M  V30 6 1 11 8
M  V30 7 1 13 4
M  V30 8 1 13 6
M  V30 9 1 15 4
M  V30 10 1 16 11
M  V30 11 1 17 14
M  V30 12 1 18 3
M  V30 13 1 19 3
M  V30 14 1 19 8
M  V30 15 1 19 12 CFG=3
M  V30 16 1 19 15
M  V30 17 1 17 20 CFG=1
M  V30 18 1 21 5
M  V30 19 1 21 10
M  V30 20 1 22 12
M  V30 21 1 24 7
M  V30 22 1 24 8
M  V30 23 1 25 17
M  V30 24 1 27 6
M  V30 25 1 27 14
M  V30 26 1 27 23
M  V30 27 1 28 9
M  V30 28 1 28 26
M  V30 29 1 29 11
M  V30 30 1 29 26
M  V30 31 1 30 17
M  V30 32 1 31 23
M  V30 33 1 31 25
M  V30 34 1 32 3
M  V30 35 1 32 7
M  V30 36 1 32 18
M  V30 37 1 33 25
M  V30 38 1 1 34 CFG=3
M  V30 39 1 35 2
M  V30 40 1 36 2
M  V30 41 1 37 2
M  V30 42 1 3 38 CFG=1
M  V30 43 1 4 39 CFG=1
M  V30 44 1 40 5
M  V30 45 1 41 5
M  V30 46 1 42 6
M  V30 47 1 7 43 CFG=1
M  V30 48 1 8 44 CFG=3
M  V30 49 1 45 10
M  V30 50 1 46 10
M  V30 51 1 47 12
M  V30 52 1 48 12
M  V30 53 1 49 13
M  V30 54 1 50 13
M  V30 55 1 51 14
M  V30 56 1 52 14
M  V30 57 1 53 16
M  V30 58 1 54 16
M  V30 59 1 55 16
M  V30 60 1 56 18
M  V30 61 1 57 18
M  V30 62 1 58 21
M  V30 63 1 59 21
M  V30 64 1 60 22
M  V30 65 1 61 22
M  V30 66 1 62 22
M  V30 67 1 63 24
M  V30 68 1 64 24
M  V30 69 1 25 65 CFG=1
M  V30 70 1 66 26
M  V30 71 1 67 26
M  V30 72 1 27 68 CFG=1
M  V30 73 1 69 28
M  V30 74 1 70 28
M  V30 75 1 71 29
M  V30 76 1 72 29
M  V30 77 1 73 30
M  V30 78 1 74 30
M  V30 79 1 75 30
M  V30 80 1 76 31
M  V30 81 1 77 31
M  V30 82 1 32 78 CFG=1
M  V30 83 1 9 79 CFG=1
M  V30 84 1 11 80 CFG=3
M  V30 85 1 81 6
M  V30 END BOND
M  V30 END CTAB
M  END
>  <i_epik_Tot_Q>  (1) 
3

>  <i_epik_Tot_abs_Q>  (1) 
3

>  <i_i_glide_confnum>  (1) 
741

>  <i_i_glide_lignum>  (1) 
136

>  <i_i_glide_posenum>  (1) 
69

>  <i_i_glide_rotatable_bonds>  (1) 
9

>  <i_lp_mmshare_version>  (1) 
72125

>  <i_m_source_file_index>  (1) 
79

>  <i_f3d_flags>  (1) 
0

>  <num_sample>  (1) 
100

>  <b_lp_Chiralities_Consistent>  (1) 
1

>  <r_epik_Charging_Adjusted_Penalty>  (1) 
1.7942086838225126

>  <r_epik_Ionization_Penalty>  (1) 
0.94562311220168549

>  <r_epik_Ionization_Penalty_Charging>  (1) 
0.94562311220168382

>  <r_epik_Ionization_Penalty_Neutral>  (1) 
1.710257484888175e-15

>  <r_epik_State_Penalty>  (1) 
0.84858557162082893

>  <r_glide_ring_energy>  (1) 
0

>  <r_i_docking_score>  (1) 
-5.9049133778870182

>  <r_i_glide_ecoul>  (1) 
-9.4565461990344382

>  <r_i_glide_eff_state_penalty>  (1) 
0.84858557162082893

>  <r_i_glide_einternal>  (1) 
8.1710790956939228

>  <r_i_glide_emodel>  (1) 
-37.286175534020643

>  <r_i_glide_emodel_strain>  (1) 
1.9338174115669915

>  <r_i_glide_energy>  (1) 
-26.726467854075718

>  <r_i_glide_erotb>  (1) 
0.50682868049007723

>  <r_i_glide_esite>  (1) 
-0.1355833921255262

>  <r_i_glide_evdw>  (1) 
-17.26992165504128

>  <r_i_glide_gscore>  (1) 
-6.753498949507847

>  <r_i_glide_gscore_strain>  (1) 
0

>  <r_i_glide_hbond>  (1) 
-0.18508041714315088

>  <r_i_glide_ligand_efficiency>  (1) 
-0.17893676902687933

>  <r_i_glide_ligand_efficiency_ln>  (1) 
-1.3132221612368877

>  <r_i_glide_ligand_efficiency_sa>  (1) 
-0.57394582955224938

>  <r_i_glide_lipo>  (1) 
-2.7126605710331124

>  <r_i_glide_metal>  (1) 
-0

>  <r_i_glide_rewards>  (1) 
-1.9450252370889045

>  <r_lp_Energy>  (1) 
78.428286999999997

>  <s_epik_Chemistry_Notes>  (1) 
This compound contains an acetal/aminal-like group ( X-CH(R)-Y where X, Y are N, S, or O) that may be acid/base labile, releasing an aldehyde.

>  <s_epik_cmdline>  (1) 
J2VwaWtfcHl0aG9uJywgJy1waHQnLCAnMS4wJywgJy1waCcsICc3LjQnLCAnLXRuJywgJzgnLCAnLW1hJywgJzUwMCcsICctaW1hZScsICc8aW5maWxlLm1hZT4nLCAnLW9tYWUnLCAnPG91dGZpbGUubWFlPic=

>  <s_epik_input>  (1) 
W0NIM11bQ0BASF0xW0NIMl1bQ0gyXVtDSDJdTjFbQ0gyXVtDSDJdW0NIMl1OKFtDSDNdKVtDQEBIXTJbQ0gyXVtDQEBIXShbQ0BASF0oW0NIMl0zKVtDQEBIXTNbQ0BAXTI0W0NIMl1bQ0gzXSlbQ0BASF0oTzQpW0NIMl1bTkhdW0NASF0oW0NIMl1bQ0BdNShGKVtDSDNdKU9bQ0gyXVtDQEhdNUY=

>  <s_glide_docking_method>  (1) 
confgen

>  <s_i_glide_gridfile>  (1) 
gpcr_drd2_6luq_protein_autoprepared_prepared

>  <s_lp_Force_Field>  (1) 
S-OPLS

>  <s_lp_Variant>  (1) 
DiffSBDD_78-8

>  <s_m_source_file>  (1) 
generated_generic_title2_ligand_DiffSBDD_2026-06-23_prepared.sdf

>  <GenAI_Model>  (1) 
DiffSBDD

>  <Protein>  (1) 
generic_title2

$$$$
DiffSBDD_52
     RDKit          3D

  0  0  0  0  0  0  0  0  0  0999 V3000
M  V30 BEGIN CTAB
M  V30 COUNTS 50 53 0 0 1
M  V30 BEGIN ATOM
M  V30 1 C 12.041151 9.397407 -4.094962 0
M  V30 2 F 12.739506 8.143360 -2.096470 0
M  V30 3 C 7.340908 6.998008 -12.468125 0 CFG=1
M  V30 4 C 6.714436 4.323334 -12.021758 0
M  V30 5 C 7.554858 4.974152 -10.937316 0 CFG=2
M  V30 6 C 11.775110 6.910501 -3.786070 0
M  V30 7 C 10.608387 7.249674 -8.040550 0
M  V30 8 C 6.129999 4.262801 -14.465202 0
M  V30 9 C 12.178380 8.099679 -3.314476 0
M  V30 10 N 7.770073 6.389948 -11.185025 0 CFG=1 CHG=1
M  V30 11 C 10.642663 8.067836 -5.746551 0 CFG=2
M  V30 12 O 8.114280 8.046259 -12.596905 0 CHG=-1
M  V30 13 C 5.526677 5.600804 -14.896272 0
M  V30 14 O 10.042603 8.048599 -7.028621 0
M  V30 15 C 11.690869 9.174434 -5.584211 0
M  V30 16 C 7.208429 4.614301 -13.454549 0 CFG=1
M  V30 17 C 6.717632 6.543761 -14.908569 0
M  V30 18 C 9.465870 6.999973 -9.024536 0
M  V30 19 C 11.116319 6.721021 -5.141420 0
M  V30 20 C 8.943314 5.548126 -11.140222 0 CFG=1
M  V30 21 C 9.887369 5.949167 -10.041763 0
M  V30 22 C 7.566494 6.097346 -13.711116 0 CFG=1
M  V30 23 H 11.271842 9.998027 -3.611085 0
M  V30 24 H 12.975352 9.950902 -4.011690 0
M  V30 25 H 6.262535 7.104599 -12.339843 0
M  V30 26 H 6.673605 3.247587 -11.849373 0
M  V30 27 H 5.692291 4.684982 -11.897154 0
M  V30 28 H 7.210293 4.840458 -9.914608 0
M  V30 29 H 11.905079 6.023799 -3.184270 0
M  V30 30 H 11.456729 7.746254 -8.514906 0
M  V30 31 H 10.950733 6.283373 -7.672901 0
M  V30 32 H 6.577927 3.757192 -15.319255 0
M  V30 33 H 5.390040 3.603467 -14.007518 0
M  V30 34 H 9.779068 8.384558 -5.185140 0
M  V30 35 H 4.997208 5.590288 -15.851106 0
M  V30 36 H 4.823486 5.925971 -14.131828 0
M  V30 37 H 11.330690 10.105788 -6.016417 0
M  V30 38 H 12.575545 8.903358 -6.152612 0
M  V30 39 H 8.087818 3.994277 -13.643811 0
M  V30 40 H 7.282068 6.412654 -15.832666 0
M  V30 41 H 6.421904 7.591432 -14.850173 0
M  V30 42 H 8.582569 6.657695 -8.482504 0
M  V30 43 H 9.217520 7.937241 -9.522062 0
M  V30 44 H 11.859570 6.226121 -5.762578 0
M  V30 45 H 10.269399 6.038173 -5.037285 0
M  V30 46 H 9.428071 5.364357 -12.096944 0
M  V30 47 H 10.736959 6.393533 -10.549574 0
M  V30 48 H 10.175316 5.038405 -9.518314 0
M  V30 49 H 8.611227 6.139132 -14.016632 0
M  V30 50 H 7.560622 6.970637 -10.355405 0
M  V30 END ATOM
M  V30 BEGIN BOND
M  V30 1 1 5 4
M  V30 2 1 9 1
M  V30 3 1 9 2
M  V30 4 2 9 6
M  V30 5 1 10 3
M  V30 6 1 10 5
M  V30 7 1 12 3
M  V30 8 1 13 8
M  V30 9 1 14 7
M  V30 10 1 14 11
M  V30 11 1 15 1
M  V30 12 1 15 11
M  V30 13 1 16 4
M  V30 14 1 16 8
M  V30 15 1 17 13
M  V30 16 1 18 7
M  V30 17 1 19 6
M  V30 18 1 19 11
M  V30 19 1 20 5
M  V30 20 1 20 10
M  V30 21 1 21 18
M  V30 22 1 21 20
M  V30 23 1 22 3
M  V30 24 1 22 16
M  V30 25 1 22 17
M  V30 26 1 23 1
M  V30 27 1 24 1
M  V30 28 1 3 25 CFG=1
M  V30 29 1 26 4
M  V30 30 1 27 4
M  V30 31 1 5 28 CFG=1
M  V30 32 1 29 6
M  V30 33 1 30 7
M  V30 34 1 31 7
M  V30 35 1 32 8
M  V30 36 1 33 8
M  V30 37 1 11 34 CFG=1
M  V30 38 1 35 13
M  V30 39 1 36 13
M  V30 40 1 37 15
M  V30 41 1 38 15
M  V30 42 1 16 39 CFG=3
M  V30 43 1 40 17
M  V30 44 1 41 17
M  V30 45 1 42 18
M  V30 46 1 43 18
M  V30 47 1 44 19
M  V30 48 1 45 19
M  V30 49 1 20 46 CFG=3
M  V30 50 1 47 21
M  V30 51 1 48 21
M  V30 52 1 22 49 CFG=3
M  V30 53 1 10 50 CFG=1
M  V30 END BOND
M  V30 END CTAB
M  END
>  <i_epik_Tot_Q>  (1) 
0

>  <i_epik_Tot_abs_Q>  (1) 
2

>  <i_i_glide_confnum>  (1) 
32

>  <i_i_glide_lignum>  (1) 
82

>  <i_i_glide_posenum>  (1) 
88

>  <i_i_glide_rotatable_bonds>  (1) 
5

>  <i_lp_mmshare_version>  (1) 
72125

>  <i_m_source_file_index>  (1) 
53

>  <i_f3d_flags>  (1) 
0

>  <num_sample>  (1) 
100

>  <b_lp_Chiralities_Consistent>  (1) 
1

>  <r_epik_Charging_Adjusted_Penalty>  (1) 
0.66076975529779935

>  <r_epik_Ionization_Penalty>  (1) 
0.32551799850713803

>  <r_epik_Ionization_Penalty_Charging>  (1) 
0.32551799850601437

>  <r_epik_Ionization_Penalty_Neutral>  (1) 
1.1236391675704673e-12

>  <r_epik_State_Penalty>  (1) 
0.33525175679178498

>  <r_glide_ring_energy>  (1) 
0

>  <r_i_docking_score>  (1) 
-5.9033224683460945

>  <r_i_glide_ecoul>  (1) 
-6.6409397755506374

>  <r_i_glide_eff_state_penalty>  (1) 
0.33525175679178498

>  <r_i_glide_einternal>  (1) 
2.9870130526126846

>  <r_i_glide_emodel>  (1) 
-39.016533684584026

>  <r_i_glide_emodel_strain>  (1) 
1.3365055978989773

>  <r_i_glide_energy>  (1) 
-27.42732717394933

>  <r_i_glide_erotb>  (1) 
0.58016400484968

>  <r_i_glide_esite>  (1) 
-0.16040484799884169

>  <r_i_glide_evdw>  (1) 
-20.786387398398691

>  <r_i_glide_gscore>  (1) 
-6.2385742251378797

>  <r_i_glide_gscore_strain>  (1) 
0

>  <r_i_glide_hbond>  (1) 
-0.15005095612099467

>  <r_i_glide_ligand_efficiency>  (1) 
-0.26833283947027703

>  <r_i_glide_ligand_efficiency_ln>  (1) 
-1.4429873401827171

>  <r_i_glide_ligand_efficiency_sa>  (1) 
-0.75187916990215453

>  <r_i_glide_lipo>  (1) 
-2.3257618178235124

>  <r_i_glide_metal>  (1) 
-0

>  <r_i_glide_rewards>  (1) 
-2.1470602717916796

>  <r_lp_Energy>  (1) 
29.210184999999999

>  <s_epik_Chemistry_Notes>  (1) 
This compound contains an acetal/aminal-like group ( X-CH(R)-Y where X, Y are N, S, or O) that may be acid/base labile, releasing an aldehyde.

>  <s_epik_cmdline>  (1) 
J2VwaWtfcHl0aG9uJywgJy1waHQnLCAnMS4wJywgJy1waCcsICc3LjQnLCAnLXRuJywgJzgnLCAnLW1hJywgJzUwMCcsICctaW1hZScsICc8aW5maWxlLm1hZT4nLCAnLW9tYWUnLCAnPG91dGZpbGUubWFlPic=

>  <s_epik_input>  (1) 
RkMxPVtDSF1bQ0gyXVtDQEBIXShbQ0gyXVtDSDJdMSlPW0NIMl1bQ0gyXVtDSDJdW0NAQEhdMk4oW0NASF0yMylbQ0BASF0oW09IXSlbQ0BIXTRbQ0BASF0oW0NIMl0zKVtDSDJdW0NIMl1bQ0gyXTQ=

>  <s_glide_docking_method>  (1) 
confgen

>  <s_i_glide_gridfile>  (1) 
gpcr_drd2_6luq_protein_autoprepared_prepared

>  <s_lp_Force_Field>  (1) 
S-OPLS

>  <s_lp_Variant>  (1) 
DiffSBDD_52-1

>  <s_m_source_file>  (1) 
generated_generic_title2_ligand_DiffSBDD_2026-06-23_prepared.sdf

>  <GenAI_Model>  (1) 
DiffSBDD

>  <Protein>  (1) 
generic_title2

$$$$
DiffSBDD_8
     RDKit          3D

  0  0  0  0  0  0  0  0  0  0999 V3000
M  V30 BEGIN CTAB
M  V30 COUNTS 62 64 0 0 1
M  V30 BEGIN ATOM
M  V30 1 C 8.904904 5.783829 -8.277130 0
M  V30 2 O 11.775383 9.396871 -6.917352 0
M  V30 3 C 7.747110 1.286639 -14.681716 0
M  V30 4 N 12.407110 8.537128 -8.892573 0
M  V30 5 C 6.660582 5.895704 -14.704020 0 CFG=2
M  V30 6 C 7.863354 3.637074 -13.103366 0
M  V30 7 N 10.571420 7.174528 -5.999758 0 CHG=1
M  V30 8 C 5.095008 6.136937 -18.145632 0
M  V30 9 C 7.623012 6.011972 -17.757846 0
M  V30 10 O 6.575410 7.829914 -15.902496 0
M  V30 11 C 6.968831 2.399311 -15.022293 0
M  V30 12 C 3.699365 6.390338 -17.534714 0
M  V30 13 O 6.161388 4.615236 -14.557576 0
M  V30 14 S 8.564306 4.498594 -10.544381 0
M  V30 15 C 6.418426 6.625526 -13.366612 0
M  V30 16 C 7.944777 4.919309 -12.222147 0 CFG=2
M  V30 17 N 8.575413 5.990223 -9.683521 0 CFG=2 CHG=1
M  V30 18 F 7.694333 0.165403 -15.438015 0
M  V30 19 C 5.641807 8.765766 -16.370274 0
M  V30 20 C 9.721201 6.883741 -9.820260 0
M  V30 21 C 6.616173 5.696984 -12.159392 0
M  V30 22 C 9.668241 7.099616 -8.298904 0 CFG=2
M  V30 23 C 6.227107 5.848090 -17.130812 0 CFG=1
M  V30 24 N 6.003180 6.518949 -15.834989 0
M  V30 25 C 11.740684 8.481626 -7.736247 0
M  V30 26 C 8.575382 1.333116 -13.560313 0
M  V30 27 C 8.652045 2.505161 -12.785029 0
M  V30 28 C 6.998606 3.571839 -14.232627 0
M  V30 29 C 10.936211 7.214831 -7.430456 0 CFG=1
M  V30 30 H 8.036799 5.762799 -7.618332 0
M  V30 31 H 9.554218 4.922992 -8.104643 0
M  V30 32 H 12.960731 9.356855 -9.117137 0
M  V30 33 H 12.363515 7.766043 -9.541080 0
M  V30 34 H 7.730990 5.833252 -14.907236 0
M  V30 35 H 11.407289 7.274928 -5.443288 0
M  V30 36 H 9.962070 7.956131 -5.805698 0
M  V30 37 H 5.361073 6.975476 -18.789358 0
M  V30 38 H 5.030002 5.287914 -18.826792 0
M  V30 39 H 7.757452 5.297052 -18.569530 0
M  V30 40 H 7.751277 7.003560 -18.189831 0
M  V30 41 H 8.424511 5.832906 -17.041797 0
M  V30 42 H 6.321736 2.349735 -15.883663 0
M  V30 43 H 2.952841 6.390225 -18.320973 0
M  V30 44 H 3.429310 5.645568 -16.785036 0
M  V30 45 H 3.597603 7.356973 -17.051758 0
M  V30 46 H 7.087299 7.485449 -13.315928 0
M  V30 47 H 5.397782 7.012318 -13.356449 0
M  V30 48 H 8.708123 5.563919 -12.659366 0
M  V30 49 H 6.111035 9.740742 -16.385127 0
M  V30 50 H 5.375400 8.595779 -17.405568 0
M  V30 51 H 4.752799 8.792707 -15.739233 0
M  V30 52 H 10.611166 6.390240 -10.179796 0
M  V30 53 H 9.496515 7.775534 -10.407643 0
M  V30 54 H 6.566420 6.336405 -11.280350 0
M  V30 55 H 5.777271 5.007544 -12.051999 0
M  V30 56 H 8.975653 7.920311 -8.091098 0
M  V30 57 H 6.175410 4.790212 -16.916721 0
M  V30 58 H 9.174764 0.473175 -13.296345 0
M  V30 59 H 9.318229 2.525534 -11.941638 0
M  V30 60 H 11.587073 6.362280 -7.614819 0
M  V30 61 H 7.724058 6.569572 -9.716065 0
M  V30 62 H 10.108726 6.306839 -5.769334 0
M  V30 END ATOM
M  V30 BEGIN BOND
M  V30 1 2 11 3
M  V30 2 1 12 8
M  V30 3 1 13 5
M  V30 4 1 15 5
M  V30 5 1 16 6
M  V30 6 1 16 14
M  V30 7 1 17 1
M  V30 8 1 17 14
M  V30 9 1 18 3
M  V30 10 1 19 10
M  V30 11 1 20 17
M  V30 12 1 21 15
M  V30 13 1 21 16
M  V30 14 1 22 1
M  V30 15 1 22 20
M  V30 16 1 23 8
M  V30 17 1 23 9
M  V30 18 1 24 5
M  V30 19 1 24 10
M  V30 20 1 24 23
M  V30 21 2 25 2
M  V30 22 1 25 4
M  V30 23 1 26 3
M  V30 24 1 27 6
M  V30 25 2 27 26
M  V30 26 2 28 6
M  V30 27 1 28 11
M  V30 28 1 28 13
M  V30 29 1 29 7
M  V30 30 1 29 22
M  V30 31 1 29 25
M  V30 32 1 30 1
M  V30 33 1 31 1
M  V30 34 1 32 4
M  V30 35 1 33 4
M  V30 36 1 5 34 CFG=3
M  V30 37 1 35 7
M  V30 38 1 36 7
M  V30 39 1 37 8
M  V30 40 1 38 8
M  V30 41 1 39 9
M  V30 42 1 40 9
M  V30 43 1 41 9
M  V30 44 1 42 11
M  V30 45 1 43 12
M  V30 46 1 44 12
M  V30 47 1 45 12
M  V30 48 1 46 15
M  V30 49 1 47 15
M  V30 50 1 16 48 CFG=3
M  V30 51 1 49 19
M  V30 52 1 50 19
M  V30 53 1 51 19
M  V30 54 1 52 20
M  V30 55 1 53 20
M  V30 56 1 54 21
M  V30 57 1 55 21
M  V30 58 1 22 56 CFG=3
M  V30 59 1 23 57 CFG=1
M  V30 60 1 58 26
M  V30 61 1 59 27
M  V30 62 1 29 60 CFG=3
M  V30 63 1 17 61 CFG=1
M  V30 64 1 62 7
M  V30 END BOND
M  V30 END CTAB
M  END
>  <i_epik_Tot_Q>  (1) 
2

>  <i_epik_Tot_abs_Q>  (1) 
2

>  <i_i_glide_confnum>  (1) 
104

>  <i_i_glide_lignum>  (1) 
14

>  <i_i_glide_posenum>  (1) 
49

>  <i_i_glide_rotatable_bonds>  (1) 
8

>  <i_lp_mmshare_version>  (1) 
72125

>  <i_m_source_file_index>  (1) 
9

>  <i_f3d_flags>  (1) 
0

>  <num_sample>  (1) 
100

>  <b_lp_Chiralities_Consistent>  (1) 
1

>  <r_epik_Charging_Adjusted_Penalty>  (1) 
1.8967099088143093

>  <r_epik_Ionization_Penalty>  (1) 
0.97230814562840162

>  <r_epik_Ionization_Penalty_Charging>  (1) 
0.97206898566559774

>  <r_epik_Ionization_Penalty_Neutral>  (1) 
0.00023915996280393024

>  <r_epik_State_Penalty>  (1) 
0.9246409231487116

>  <r_glide_ring_energy>  (1) 
0

>  <r_i_docking_score>  (1) 
-5.9022232378735531

>  <r_i_glide_ecoul>  (1) 
-11.707128106041415

>  <r_i_glide_eff_state_penalty>  (1) 
0.9246409231487116

>  <r_i_glide_einternal>  (1) 
7.1779557509351619

>  <r_i_glide_emodel>  (1) 
-52.704839403846549

>  <r_i_glide_emodel_strain>  (1) 
2.5912091588898249

>  <r_i_glide_energy>  (1) 
-34.063266030227979

>  <r_i_glide_erotb>  (1) 
0.54076123851304858

>  <r_i_glide_esite>  (1) 
-0.091129270254112327

>  <r_i_glide_evdw>  (1) 
-22.356137924186562

>  <r_i_glide_gscore>  (1) 
-6.8268641610222645

>  <r_i_glide_gscore_strain>  (1) 
0

>  <r_i_glide_hbond>  (1) 
-0.34661967621330975

>  <r_i_glide_ligand_efficiency>  (1) 
-0.20352493923701906

>  <r_i_glide_ligand_efficiency_ln>  (1) 
-1.3514594540053935

>  <r_i_glide_ligand_efficiency_sa>  (1) 
-0.62529309526458343

>  <r_i_glide_lipo>  (1) 
-1.7829636234860835

>  <r_i_glide_metal>  (1) 
-0

>  <r_i_glide_rewards>  (1) 
-2.273036717466268

>  <r_lp_Energy>  (1) 
57.067200999999997

>  <r_lp_tautomer_probability>  (1) 
1

>  <s_epik_Chemistry_Notes>  (1) 
This compound contains an acetal/aminal-like group ( X-CH(R)-Y where X, Y are N, S, or O) that may be acid/base labile, releasing an aldehyde. This compound has a N-S or N-O group and may undergo hydrolysis at high or low pH.

>  <s_epik_cmdline>  (1) 
J2VwaWtfcHl0aG9uJywgJy1waHQnLCAnMS4wJywgJy1waCcsICc3LjQnLCAnLXRuJywgJzgnLCAnLW1hJywgJzUwMCcsICctaW1hZScsICc8aW5maWxlLm1hZT4nLCAnLW9tYWUnLCAnPG91dGZpbGUubWFlPic=

>  <s_epik_input>  (1) 
Tz1DKFtOSDJdKVtDQEBIXShbTkgyXSlbQ0hdKFtDSDJdMSlbQ0gyXU4xU1tDQEBIXTJbQ0gyXVtDSDJdW0NASF0oTihPW0NIM10pW0NASF0oW0NIM10pW0NIMl1bQ0gzXSlPYyhjMjMpW2NIXWMoRilbY0hdW2NIXTM=

>  <s_glide_docking_method>  (1) 
confgen

>  <s_i_glide_gridfile>  (1) 
gpcr_drd2_6luq_protein_autoprepared_prepared

>  <s_lp_Force_Field>  (1) 
S-OPLS

>  <s_lp_Variant>  (1) 
DiffSBDD_8-4

>  <s_m_source_file>  (1) 
generated_generic_title2_ligand_DiffSBDD_2026-06-23_prepared.sdf

>  <GenAI_Model>  (1) 
DiffSBDD

>  <Protein>  (1) 
generic_title2

$$$$
DiffSBDD_71
     RDKit          3D

  0  0  0  0  0  0  0  0  0  0999 V3000
M  V30 BEGIN CTAB
M  V30 COUNTS 55 57 0 0 1
M  V30 BEGIN ATOM
M  V30 1 C 9.282839 5.444640 -11.807687 0 CFG=1
M  V30 2 O 7.995693 8.790248 -11.585024 0
M  V30 3 C 11.189769 6.840957 -6.117494 0 CFG=1
M  V30 4 C 10.755286 8.781067 -8.371577 0
M  V30 5 C 8.703026 7.808372 -12.276876 0
M  V30 6 C 6.835161 1.189950 -14.353433 0
M  V30 7 C 9.671115 6.449936 -8.114280 0
M  V30 8 N 9.122006 6.831080 -11.268037 0
M  V30 9 C 7.481135 2.813825 -17.007704 0
M  V30 10 O 5.942899 -0.274165 -15.949400 0
M  V30 11 O 11.301500 7.731821 -5.034664 0
M  V30 12 C 10.271041 7.367501 -10.495410 0
M  V30 13 C 9.318529 4.389229 -10.693509 0
M  V30 14 C 12.072237 8.381403 -7.699656 0 CFG=2
M  V30 15 C 6.962993 1.583236 -16.931490 0
M  V30 16 C 7.327179 2.334465 -13.857915 0
M  V30 17 C 6.956258 0.687220 -15.747727 0 CFG=1
M  V30 18 C 9.719644 6.779713 -6.609011 0
M  V30 19 O 12.060346 7.072932 -7.185063 0
M  V30 20 O 11.327223 9.971488 -4.497415 0
M  V30 21 C 8.178623 4.948472 -12.771578 0
M  V30 22 C 9.906943 7.678678 -9.027212 0 CFG=2
M  V30 23 C 11.626208 9.048811 -5.251290 0
M  V30 24 C 8.116357 3.586163 -15.935723 0
M  V30 25 C 8.060521 3.399358 -14.583870 0
M  V30 26 O 8.746056 4.321018 -13.822275 0
M  V30 27 C 12.446907 9.290843 -6.523836 0
M  V30 28 O 6.967388 5.075202 -12.575263 0
M  V30 29 H 10.229482 5.408443 -12.348432 0
M  V30 30 H 7.579644 8.390209 -10.817121 0
M  V30 31 H 11.474101 5.860667 -5.734432 0
M  V30 32 H 10.943952 9.590177 -9.077889 0
M  V30 33 H 10.110679 9.190231 -7.601477 0
M  V30 34 H 8.017263 7.451830 -13.040739 0
M  V30 35 H 9.557024 8.247131 -12.785028 0
M  V30 36 H 6.330316 0.521872 -13.669443 0
M  V30 37 H 8.691150 6.031609 -8.350797 0
M  V30 38 H 10.399350 5.667440 -8.315356 0
M  V30 39 H 7.436728 3.289980 -17.976566 0
M  V30 40 H 5.124312 0.070791 -15.627477 0
M  V30 41 H 11.180239 6.790227 -10.571697 0
M  V30 42 H 10.585203 8.319250 -10.924011 0
M  V30 43 H 9.374964 3.378155 -11.102387 0
M  V30 44 H 10.175267 4.500467 -10.049106 0
M  V30 45 H 8.424680 4.439346 -10.070052 0
M  V30 46 H 12.861786 8.413315 -8.451368 0
M  V30 47 H 6.535660 1.159605 -17.829374 0
M  V30 48 H 7.180088 2.487197 -12.799948 0
M  V30 49 H 7.889011 0.123837 -15.791196 0
M  V30 50 H 9.179102 7.696061 -6.373979 0
M  V30 51 H 9.221330 5.996904 -6.038039 0
M  V30 52 H 8.975405 8.205781 -9.094334 0
M  V30 53 H 8.682062 4.446913 -16.260194 0
M  V30 54 H 12.286252 10.335568 -6.784977 0
M  V30 55 H 13.505518 9.190236 -6.285163 0
M  V30 END ATOM
M  V30 BEGIN BOND
M  V30 1 1 5 2
M  V30 2 1 8 1
M  V30 3 1 8 5
M  V30 4 1 11 3
M  V30 5 1 12 8
M  V30 6 1 13 1
M  V30 7 1 14 4
M  V30 8 2 15 9
M  V30 9 2 16 6
M  V30 10 1 17 6
M  V30 11 1 17 10
M  V30 12 1 17 15
M  V30 13 1 18 3
M  V30 14 1 18 7
M  V30 15 1 19 3
M  V30 16 1 19 14
M  V30 17 1 21 1
M  V30 18 1 22 4
M  V30 19 1 22 7
M  V30 20 1 22 12
M  V30 21 1 23 11
M  V30 22 2 23 20
M  V30 23 1 24 9
M  V30 24 1 25 16
M  V30 25 2 25 24
M  V30 26 1 26 21
M  V30 27 1 26 25
M  V30 28 1 27 14
M  V30 29 1 27 23
M  V30 30 2 28 21
M  V30 31 1 1 29 CFG=3
M  V30 32 1 30 2
M  V30 33 1 3 31 CFG=1
M  V30 34 1 32 4
M  V30 35 1 33 4
M  V30 36 1 34 5
M  V30 37 1 35 5
M  V30 38 1 36 6
M  V30 39 1 37 7
M  V30 40 1 38 7
M  V30 41 1 39 9
M  V30 42 1 40 10
M  V30 43 1 41 12
M  V30 44 1 42 12
M  V30 45 1 43 13
M  V30 46 1 44 13
M  V30 47 1 45 13
M  V30 48 1 14 46 CFG=3
M  V30 49 1 47 15
M  V30 50 1 48 16
M  V30 51 1 17 49 CFG=1
M  V30 52 1 50 18
M  V30 53 1 51 18
M  V30 54 1 22 52 CFG=3
M  V30 55 1 53 24
M  V30 56 1 54 27
M  V30 57 1 55 27
M  V30 END BOND
M  V30 END CTAB
M  END
>  <i_epik_Tot_Q>  (1) 
0

>  <i_epik_Tot_abs_Q>  (1) 
0

>  <i_i_glide_confnum>  (1) 
599

>  <i_i_glide_lignum>  (1) 
115

>  <i_i_glide_posenum>  (1) 
185

>  <i_i_glide_rotatable_bonds>  (1) 
9

>  <i_lp_mmshare_version>  (1) 
72125

>  <i_m_source_file_index>  (1) 
72

>  <i_f3d_flags>  (1) 
0

>  <num_sample>  (1) 
100

>  <b_lp_Chiralities_Consistent>  (1) 
1

>  <r_epik_Charging_Adjusted_Penalty>  (1) 
0

>  <r_epik_Ionization_Penalty>  (1) 
0.0080147773199130048

>  <r_epik_Ionization_Penalty_Charging>  (1) 
0

>  <r_epik_Ionization_Penalty_Neutral>  (1) 
0.0080147773199130048

>  <r_epik_State_Penalty>  (1) 
-0

>  <r_glide_ring_energy>  (1) 
0

>  <r_i_docking_score>  (1) 
-5.8899280072287494

>  <r_i_glide_ecoul>  (1) 
-5.2918447128262045

>  <r_i_glide_eff_state_penalty>  (1) 
-0

>  <r_i_glide_einternal>  (1) 
6.8438471057248149

>  <r_i_glide_emodel>  (1) 
-44.613617130265546

>  <r_i_glide_emodel_strain>  (1) 
1.0796616844953064

>  <r_i_glide_energy>  (1) 
-36.827363915249293

>  <r_i_glide_erotb>  (1) 
0.75718691864975285

>  <r_i_glide_esite>  (1) 
-0.053714838942426762

>  <r_i_glide_evdw>  (1) 
-31.535519202423085

>  <r_i_glide_gscore>  (1) 
-5.8899280072287494

>  <r_i_glide_gscore_strain>  (1) 
0

>  <r_i_glide_hbond>  (1) 
-0.16

>  <r_i_glide_ligand_efficiency>  (1) 
-0.21035457168674104

>  <r_i_glide_ligand_efficiency_ln>  (1) 
-1.3595683198692177

>  <r_i_glide_ligand_efficiency_sa>  (1) 
-0.63876037256758644

>  <r_i_glide_lipo>  (1) 
-1.6866258621326831

>  <r_i_glide_metal>  (1) 
-0

>  <r_i_glide_rewards>  (1) 
-2.3762215577583077

>  <r_lp_Energy>  (1) 
45.945371999999999

>  <r_lp_tautomer_probability>  (1) 
1

>  <s_epik_Chemistry_Notes>  (1) 
This compound has an ester and may undergo hydrolysis at high or low pH. This compound contains an acetal/aminal-like group ( X-CH(R)-Y where X, Y are N, S, or O) that may be acid/base labile, releasing an aldehyde.

>  <s_epik_cmdline>  (1) 
J2VwaWtfcHl0aG9uJywgJy1waHQnLCAnMS4wJywgJy1waCcsICc3LjQnLCAnLXRuJywgJzgnLCAnLW1hJywgJzUwMCcsICctaW1hZScsICc8aW5maWxlLm1hZT4nLCAnLW9tYWUnLCAnPG91dGZpbGUubWFlPic=

>  <s_epik_input>  (1) 
W09IXVtDQEBIXTFbQ0hdPVtDSF1DKD1bQ0hdW0NIXT1bQ0hdMSlPQyg9TylbQ0BIXShbQ0gzXSlOKFtDSDJdW09IXSlbQ0gyXVtDQEBIXShbQ0gyXVtDSDJdMilbQ0gyXVtDQEhdKE8zKVtDSDJdQyg9TylPW0NAQEhdMjM=

>  <s_glide_docking_method>  (1) 
confgen

>  <s_i_glide_gridfile>  (1) 
gpcr_drd2_6luq_protein_autoprepared_prepared

>  <s_lp_Force_Field>  (1) 
S-OPLS

>  <s_lp_Variant>  (1) 
DiffSBDD_71-1

>  <s_m_source_file>  (1) 
generated_generic_title2_ligand_DiffSBDD_2026-06-23_prepared.sdf

>  <GenAI_Model>  (1) 
DiffSBDD

>  <Protein>  (1) 
generic_title2

$$$$
DiffSBDD_86
     RDKit          3D

  0  0  0  0  0  0  0  0  0  0999 V3000
M  V30 BEGIN CTAB
M  V30 COUNTS 113 116 0 0 1
M  V30 BEGIN ATOM
M  V30 1 C 13.639829 -0.408058 -18.074452 0
M  V30 2 C 14.402304 0.670063 -18.838154 0 CFG=1
M  V30 3 C 9.376284 8.366580 -7.706826 0
M  V30 4 C 3.349483 7.590117 -17.905093 0
M  V30 5 C 8.036717 2.804316 -19.353286 0 CFG=2
M  V30 6 C 8.169713 4.604529 -11.995975 0
M  V30 7 O 8.476409 0.460897 -18.947555 0
M  V30 8 C 7.126853 1.644515 -17.242491 0 CFG=2
M  V30 9 O 8.590869 -1.079012 -16.385033 0
M  V30 10 C 7.385625 0.332154 -18.029077 0 CFG=2
M  V30 11 C 7.750316 3.923528 -20.376670 0
M  V30 12 O 15.784469 0.392310 -18.771676 0
M  V30 13 N 9.375424 6.840782 -9.662244 0
M  V30 14 C 11.715396 3.241341 -18.058962 0
M  V30 15 C 11.307315 0.134667 -19.143157 0 CFG=1
M  V30 16 C 7.428308 3.507701 -14.044215 0 CFG=2
M  V30 17 O 11.845525 -0.567400 -21.765908 0
M  V30 18 C 5.553353 6.219641 -18.149255 0
M  V30 19 C 8.370621 1.426221 -20.007583 0 CFG=1
M  V30 20 C 7.235340 0.935711 -20.972429 0
M  V30 21 C 10.976376 1.471905 -19.852174 0 CFG=2
M  V30 22 O 12.116986 7.190308 -13.439372 0
M  V30 23 O 7.043621 4.963369 -11.652312 0
M  V30 24 N 10.434964 7.076838 -11.777320 0
M  V30 25 C 9.744452 1.562958 -20.730282 0
M  V30 26 C 6.905469 2.735264 -18.312197 0
M  V30 27 C 10.924809 6.688709 -6.533971 0
M  V30 28 O 8.459538 3.911831 -13.133121 0
M  V30 29 P 12.216182 0.378674 -20.675426 0 CFG=1
M  V30 30 C 5.324005 6.507435 -16.675906 0 CFG=2
M  V30 31 C 13.998520 0.758469 -20.310240 0
M  V30 32 C 7.428711 -0.500026 -21.495966 0
M  V30 33 C 4.831818 7.466682 -17.721188 0 CFG=2
M  V30 34 F 12.786522 6.559856 -14.553966 0
M  V30 35 C 6.489622 6.879481 -15.797396 0
M  V30 36 C 9.838908 1.757512 -22.065997 0
M  V30 37 C 11.602395 2.846053 -19.540505 0
M  V30 38 C 9.775509 6.383592 -10.897761 0
M  V30 39 C 12.147993 -0.081800 -17.886278 0
M  V30 40 C 7.759829 2.100566 -14.655620 0 CFG=2
M  V30 41 C 9.406552 4.897866 -11.144752 0
M  V30 42 C 9.670716 8.190035 -9.204902 0
M  V30 43 C 7.488291 -0.996536 -17.253834 0
M  V30 44 C 8.203862 2.013497 -16.164035 0
M  V30 45 O 6.710071 1.196185 -14.369850 0
M  V30 46 C 6.684513 5.942137 -14.612235 0
M  V30 47 C 7.253585 4.607075 -15.100201 0
M  V30 48 C 10.595318 8.166375 -6.789338 0
M  V30 49 C 11.123034 6.390273 -12.837024 0
M  V30 50 H 14.089192 -0.526877 -17.088463 0
M  V30 51 H 13.775207 -1.367645 -18.574626 0
M  V30 52 H 14.248153 1.635008 -18.359974 0
M  V30 53 H 8.975473 9.367783 -7.566288 0
M  V30 54 H 8.575556 7.704331 -7.387305 0
M  V30 55 H 2.908204 6.599693 -17.984763 0
M  V30 56 H 2.904199 8.093372 -17.047120 0
M  V30 57 H 3.123971 8.160475 -18.802599 0
M  V30 58 H 8.917853 3.120921 -18.800080 0
M  V30 59 H 6.168062 1.526305 -16.740240 0
M  V30 60 H 8.449680 -1.845538 -15.831824 0
M  V30 61 H 6.482786 0.159697 -18.609348 0
M  V30 62 H 6.825268 3.746659 -20.924833 0
M  V30 63 H 7.650330 4.886386 -19.880986 0
M  V30 64 H 8.550902 4.031281 -21.106136 0
M  V30 65 H 15.931626 -0.494741 -19.072396 0
M  V30 66 H 8.833050 6.278007 -9.022256 0
M  V30 67 H 12.575551 2.794347 -17.566582 0
M  V30 68 H 11.847321 4.319693 -17.967700 0
M  V30 69 H 10.823242 2.971389 -17.496507 0
M  V30 70 H 10.570340 -0.657689 -19.253391 0
M  V30 71 H 6.491266 3.408102 -13.495161 0
M  V30 72 H 6.553540 6.359141 -18.552139 0
M  V30 73 H 4.975512 5.428416 -18.622014 0
M  V30 74 H 6.258905 0.992689 -20.497668 0
M  V30 75 H 7.108689 1.608144 -21.818688 0
M  V30 76 H 6.792155 3.713100 -17.858120 0
M  V30 77 H 5.957995 2.546149 -18.816745 0
M  V30 78 H 11.777020 6.586060 -5.862235 0
M  V30 79 H 10.081829 6.180756 -6.064028 0
M  V30 80 H 11.161841 6.166623 -7.461239 0
M  V30 81 H 4.530089 5.976338 -16.159941 0
M  V30 82 H 14.274745 1.721597 -20.736140 0
M  V30 83 H 14.556967 0.017315 -20.882592 0
M  V30 84 H 6.616125 -0.775092 -22.167622 0
M  V30 85 H 8.363378 -0.613941 -22.046314 0
M  V30 86 H 7.440145 -1.226087 -20.682427 0
M  V30 87 H 5.375200 8.401293 -17.815626 0
M  V30 88 H 6.389997 7.913602 -15.464887 0
M  V30 89 H 7.375325 6.790261 -16.416590 0
M  V30 90 H 10.801695 1.852330 -22.547422 0
M  V30 91 H 8.963815 1.825428 -22.689524 0
M  V30 92 H 12.569022 2.960901 -20.022770 0
M  V30 93 H 10.984815 3.605585 -20.020533 0
M  V30 94 H 12.021467 0.758716 -17.213445 0
M  V30 95 H 11.691610 -0.908952 -17.344876 0
M  V30 96 H 8.575587 1.693422 -14.061418 0
M  V30 97 H 9.243145 4.412684 -10.182483 0
M  V30 98 H 10.240404 4.360589 -11.585968 0
M  V30 99 H 10.702605 8.462415 -9.434522 0
M  V30 100 H 9.031905 8.866450 -9.773949 0
M  V30 101 H 7.549084 -1.835047 -17.948283 0
M  V30 102 H 6.582874 -1.143694 -16.663183 0
M  V30 103 H 9.005729 1.285113 -16.224164 0
M  V30 104 H 8.734140 2.914189 -16.457270 0
M  V30 105 H 6.995038 0.320933 -14.590396 0
M  V30 106 H 5.746908 5.801139 -14.073601 0
M  V30 107 H 7.385173 6.412916 -13.921674 0
M  V30 108 H 8.203621 4.801197 -15.598188 0
M  V30 109 H 6.575543 4.220626 -15.847875 0
M  V30 110 H 11.465945 8.682551 -7.195420 0
M  V30 111 H 10.388626 8.636851 -5.828164 0
M  V30 112 H 11.693996 5.590246 -12.385020 0
M  V30 113 H 10.436429 5.989471 -13.584054 0
M  V30 END ATOM
M  V30 BEGIN BOND
M  V30 1 1 2 1
M  V30 2 1 10 7
M  V30 3 1 10 8
M  V30 4 1 11 5
M  V30 5 1 12 2
M  V30 6 1 19 5
M  V30 7 1 19 7
M  V30 8 1 19 20 CFG=3
M  V30 9 1 21 15
M  V30 10 2 23 6
M  V30 11 1 25 19
M  V30 12 1 25 21
M  V30 13 1 26 5
M  V30 14 1 26 8
M  V30 15 1 28 6
M  V30 16 1 28 16
M  V30 17 1 29 15
M  V30 18 2 29 17
M  V30 19 1 29 21
M  V30 20 1 30 18
M  V30 21 1 31 2
M  V30 22 1 29 31 CFG=1
M  V30 23 1 32 20
M  V30 24 1 33 4
M  V30 25 1 33 18
M  V30 26 1 33 30
M  V30 27 1 34 22
M  V30 28 1 35 30
M  V30 29 2 36 25
M  V30 30 1 37 14
M  V30 31 1 21 37 CFG=1
M  V30 32 1 38 13
M  V30 33 2 38 24
M  V30 34 1 39 1
M  V30 35 1 39 15
M  V30 36 1 40 16
M  V30 37 1 41 6
M  V30 38 1 41 38
M  V30 39 1 42 3
M  V30 40 1 42 13
M  V30 41 1 43 9
M  V30 42 1 43 10
M  V30 43 1 44 8
M  V30 44 1 44 40
M  V30 45 1 45 40
M  V30 46 1 46 35
M  V30 47 1 47 16
M  V30 48 1 47 46
M  V30 49 1 48 3
M  V30 50 1 48 27
M  V30 51 1 49 22
M  V30 52 1 49 24
M  V30 53 1 50 1
M  V30 54 1 51 1
M  V30 55 1 2 52 CFG=1
M  V30 56 1 53 3
M  V30 57 1 54 3
M  V30 58 1 55 4
M  V30 59 1 56 4
M  V30 60 1 57 4
M  V30 61 1 5 58 CFG=1
M  V30 62 1 8 59 CFG=1
M  V30 63 1 60 9
M  V30 64 1 10 61 CFG=3
M  V30 65 1 62 11
M  V30 66 1 63 11
M  V30 67 1 64 11
M  V30 68 1 65 12
M  V30 69 1 66 13
M  V30 70 1 67 14
M  V30 71 1 68 14
M  V30 72 1 69 14
M  V30 73 1 15 70 CFG=3
M  V30 74 1 16 71 CFG=1
M  V30 75 1 72 18
M  V30 76 1 73 18
M  V30 77 1 74 20
M  V30 78 1 75 20
M  V30 79 1 76 26
M  V30 80 1 77 26
M  V30 81 1 78 27
M  V30 82 1 79 27
M  V30 83 1 80 27
M  V30 84 1 30 81 CFG=1
M  V30 85 1 82 31
M  V30 86 1 83 31
M  V30 87 1 84 32
M  V30 88 1 85 32
M  V30 89 1 86 32
M  V30 90 1 33 87 CFG=1
M  V30 91 1 88 35
M  V30 92 1 89 35
M  V30 93 1 90 36
M  V30 94 1 91 36
M  V30 95 1 92 37
M  V30 96 1 93 37
M  V30 97 1 94 39
M  V30 98 1 95 39
M  V30 99 1 40 96 CFG=1
M  V30 100 1 97 41
M  V30 101 1 98 41
M  V30 102 1 99 42
M  V30 103 1 100 42
M  V30 104 1 101 43
M  V30 105 1 102 43
M  V30 106 1 103 44
M  V30 107 1 104 44
M  V30 108 1 105 45
M  V30 109 1 106 46
M  V30 110 1 107 46
M  V30 111 1 108 47
M  V30 112 1 109 47
M  V30 113 1 110 48
M  V30 114 1 111 48
M  V30 115 1 112 49
M  V30 116 1 113 49
M  V30 END BOND
M  V30 END CTAB
M  END
>  <i_epik_Tot_Q>  (1) 
0

>  <i_epik_Tot_abs_Q>  (1) 
0

>  <i_i_glide_confnum>  (1) 
2698

>  <i_i_glide_lignum>  (1) 
156

>  <i_i_glide_posenum>  (1) 
96

>  <i_i_glide_rotatable_bonds>  (1) 
25

>  <i_lp_mmshare_version>  (1) 
72125

>  <i_m_source_file_index>  (1) 
87

>  <i_f3d_flags>  (1) 
0

>  <num_sample>  (1) 
100

>  <b_lp_Chiralities_Consistent>  (1) 
1

>  <r_epik_Charging_Adjusted_Penalty>  (1) 
1.2316584192148512

>  <r_epik_Ionization_Penalty>  (1) 
1.2316590375040075

>  <r_epik_Ionization_Penalty_Charging>  (1) 
0

>  <r_epik_Ionization_Penalty_Neutral>  (1) 
1.2316590375040075

>  <r_epik_State_Penalty>  (1) 
1.2316584192148512

>  <r_glide_ring_energy>  (1) 
0

>  <r_i_docking_score>  (1) 
-5.887809916201233

>  <r_i_glide_ecoul>  (1) 
-9.7458792022890464

>  <r_i_glide_eff_state_penalty>  (1) 
1.2316584192148512

>  <r_i_glide_einternal>  (1) 
31.523268784725111

>  <r_i_glide_emodel>  (1) 
-44.923503416616853

>  <r_i_glide_emodel_strain>  (1) 
4.525271221538361

>  <r_i_glide_energy>  (1) 
-49.294572098877786

>  <r_i_glide_erotb>  (1) 
0.57622798544967491

>  <r_i_glide_esite>  (1) 
-0.14372836063193684

>  <r_i_glide_evdw>  (1) 
-39.54869289658874

>  <r_i_glide_gscore>  (1) 
-7.1194683354160846

>  <r_i_glide_gscore_strain>  (1) 
0.13131780538459026

>  <r_i_glide_hbond>  (1) 
-0.44167858720433489

>  <r_i_glide_ligand_efficiency>  (1) 
-0.12015938604492313

>  <r_i_glide_ligand_efficiency_ln>  (1) 
-1.2036030674461382

>  <r_i_glide_ligand_efficiency_sa>  (1) 
-0.43969992746704178

>  <r_i_glide_lipo>  (1) 
-3.0963272819622225

>  <r_i_glide_metal>  (1) 
-0

>  <r_i_glide_rewards>  (1) 
-0.70596337127906228

>  <r_lp_Energy>  (1) 
50.302675999999998

>  <s_epik_Chemistry_Notes>  (1) 
This compound has an ester and may undergo hydrolysis at high or low pH. This compound has an imine and may undergo hydrolysis. This compound contains an acetal/aminal-like group ( X-CH(R)-Y where X, Y are N, S, or O) that may be acid/base labile, releasing an aldehyde.

>  <s_epik_cmdline>  (1) 
J2VwaWtfcHl0aG9uJywgJy1waHQnLCAnMS4wJywgJy1waCcsICc3LjQnLCAnLXRuJywgJzgnLCAnLW1hJywgJzUwMCcsICctaW1hZScsICc8aW5maWxlLm1hZT4nLCAnLW9tYWUnLCAnPG91dGZpbGUubWFlPic=

>  <s_epik_input>  (1) 
W09IXVtDQEBIXShbQ0gyXTEpW0NIMl1bQ0gyXVtDQEhdKFAxMj1PKVtDQEBdMihbQ0gyXVtDSDNdKUMoPVtDSDJdKVtDQF0zKFtDSDJdW0NIM10pW0NAQEhdKFtDSDNdKVtDSDJdW0NAQEhdKFtDQEBIXShPMylbQ0gyXVtPSF0pW0NIMl1bQ0BIXShbT0hdKVtDQEhdKFtDSDJdW0NIMl1bQ0gyXVtDQEBIXTRbQ0gyXVtDQEhdNFtDSDNdKU9DKD1PKVtDSDJdQyg9TlxbQ0gyXU9GKS9bTkhdW0NIMl1bQ0gyXVtDSDJdW0NIM10=

>  <s_glide_docking_method>  (1) 
confgen

>  <s_i_glide_gridfile>  (1) 
gpcr_drd2_6luq_protein_autoprepared_prepared

>  <s_lp_Force_Field>  (1) 
S-OPLS

>  <s_lp_Variant>  (1) 
DiffSBDD_86-4

>  <s_m_source_file>  (1) 
generated_generic_title2_ligand_DiffSBDD_2026-06-23_prepared.sdf

>  <GenAI_Model>  (1) 
DiffSBDD

>  <Protein>  (1) 
generic_title2

$$$$
DiffSBDD_14
     RDKit          3D

  0  0  0  0  0  0  0  0  0  0999 V3000
M  V30 BEGIN CTAB
M  V30 COUNTS 47 48 0 0 1
M  V30 BEGIN ATOM
M  V30 1 N 9.590656 6.388709 -10.435365 0
M  V30 2 C 7.935897 3.101884 -13.455321 0
M  V30 3 N 8.975410 3.906947 -12.785020 0 CHG=1
M  V30 4 C 10.975423 9.233957 -5.809596 0
M  V30 5 C 8.990340 6.102944 -11.651212 0
M  V30 6 C 6.628520 3.329768 -12.696868 0
M  V30 7 C 10.804458 7.975210 -9.015579 0
M  V30 8 C 6.048107 4.683732 -10.637118 0
M  V30 9 C 11.603515 9.107798 -4.555362 0
M  V30 10 C 10.538747 8.085419 -6.499923 0
M  V30 11 C 11.800827 7.829241 -3.985036 0
M  V30 12 C 11.375410 6.677658 -4.692809 0
M  V30 13 C 10.745124 6.809967 -5.942946 0
M  V30 14 C 10.081873 7.554844 -10.275437 0
M  V30 15 O 8.975408 6.800629 -12.666619 0
M  V30 16 C 6.250203 5.789079 -12.878064 0
M  V30 17 C 9.843175 8.218626 -7.840861 0
M  V30 18 N 12.575411 8.733327 -1.777925 0
M  V30 19 N 12.412386 7.712824 -2.718401 0
M  V30 20 C 8.351159 4.702405 -11.713057 0 CFG=1
M  V30 21 C 6.811690 4.667836 -11.968066 0
M  V30 22 O 12.394036 6.422778 -2.169919 0
M  V30 23 H 8.210680 2.046532 -13.480261 0
M  V30 24 H 7.842439 3.447111 -14.485739 0
M  V30 25 H 9.399019 4.538134 -13.451744 0
M  V30 26 H 10.822638 10.212717 -6.237579 0
M  V30 27 H 6.481087 2.519931 -11.985027 0
M  V30 28 H 5.760875 3.310243 -13.358034 0
M  V30 29 H 11.407837 8.862773 -9.208442 0
M  V30 30 H 11.502699 7.176794 -8.762261 0
M  V30 31 H 6.315596 3.843644 -9.996296 0
M  V30 32 H 6.256321 5.590310 -10.071105 0
M  V30 33 H 4.975411 4.637768 -10.799530 0
M  V30 34 H 11.927653 9.990221 -4.026954 0
M  V30 35 H 11.522978 5.693643 -4.275260 0
M  V30 36 H 10.413842 5.930312 -6.474220 0
M  V30 37 H 10.011851 8.331458 -11.044324 0
M  V30 38 H 6.773104 5.841699 -13.833449 0
M  V30 39 H 5.196157 5.623894 -13.101490 0
M  V30 40 H 6.315009 6.768610 -12.401641 0
M  V30 41 H 9.032050 7.486889 -7.853669 0
M  V30 42 H 9.355950 9.190135 -7.928790 0
M  V30 43 H 12.975395 8.341227 -0.928332 0
M  V30 44 H 13.223751 9.433727 -2.136096 0
M  V30 45 H 8.570594 4.167494 -10.786555 0
M  V30 46 H 11.493844 6.252293 -1.932403 0
M  V30 47 H 9.689410 3.312892 -12.386208 0
M  V30 END ATOM
M  V30 BEGIN BOND
M  V30 1 1 3 2
M  V30 2 1 5 1
M  V30 3 1 6 2
M  V30 4 2 9 4
M  V30 5 1 10 4
M  V30 6 1 11 9
M  V30 7 2 12 11
M  V30 8 2 13 10
M  V30 9 1 13 12
M  V30 10 2 14 1
M  V30 11 1 14 7
M  V30 12 2 15 5
M  V30 13 1 17 7
M  V30 14 1 17 10
M  V30 15 1 19 11
M  V30 16 1 19 18
M  V30 17 1 20 3
M  V30 18 1 20 5
M  V30 19 1 21 6
M  V30 20 1 21 8
M  V30 21 1 21 16
M  V30 22 1 21 20
M  V30 23 1 22 19
M  V30 24 1 23 2
M  V30 25 1 24 2
M  V30 26 1 25 3
M  V30 27 1 26 4
M  V30 28 1 27 6
M  V30 29 1 28 6
M  V30 30 1 29 7
M  V30 31 1 30 7
M  V30 32 1 31 8
M  V30 33 1 32 8
M  V30 34 1 33 8
M  V30 35 1 34 9
M  V30 36 1 35 12
M  V30 37 1 36 13
M  V30 38 1 37 14
M  V30 39 1 38 16
M  V30 40 1 39 16
M  V30 41 1 40 16
M  V30 42 1 41 17
M  V30 43 1 42 17
M  V30 44 1 43 18
M  V30 45 1 44 18
M  V30 46 1 20 45 CFG=1
M  V30 47 1 46 22
M  V30 48 1 47 3
M  V30 END BOND
M  V30 END CTAB
M  END
>  <i_epik_Tot_Q>  (1) 
1

>  <i_epik_Tot_abs_Q>  (1) 
1

>  <i_i_glide_confnum>  (1) 
401

>  <i_i_glide_lignum>  (1) 
28

>  <i_i_glide_posenum>  (1) 
95

>  <i_i_glide_rotatable_bonds>  (1) 
7

>  <i_lp_mmshare_version>  (1) 
72125

>  <i_m_source_file_index>  (1) 
15

>  <i_f3d_flags>  (1) 
0

>  <num_sample>  (1) 
100

>  <b_lp_Chiralities_Consistent>  (1) 
1

>  <r_epik_Charging_Adjusted_Penalty>  (1) 
1.3617227199011863

>  <r_epik_Ionization_Penalty>  (1) 
0.68407859148239814

>  <r_epik_Ionization_Penalty_Charging>  (1) 
0.68086135995059327

>  <r_epik_Ionization_Penalty_Neutral>  (1) 
0.0032172315318048095

>  <r_epik_State_Penalty>  (1) 
0.68086135995059305

>  <r_glide_ring_energy>  (1) 
0.54940987635456895

>  <r_i_docking_score>  (1) 
-5.8852054996817857

>  <r_i_glide_ecoul>  (1) 
-4.8023515950407978

>  <r_i_glide_eff_state_penalty>  (1) 
0.68086135995059305

>  <r_i_glide_einternal>  (1) 
3.0705614210248111

>  <r_i_glide_emodel>  (1) 
-61.987190534255937

>  <r_i_glide_emodel_strain>  (1) 
0

>  <r_i_glide_energy>  (1) 
-42.415330499399865

>  <r_i_glide_erotb>  (1) 
1.1872890279772172

>  <r_i_glide_esite>  (1) 
-0.084907917551205331

>  <r_i_glide_evdw>  (1) 
-37.612978904359068

>  <r_i_glide_gscore>  (1) 
-6.5660668596323788

>  <r_i_glide_gscore_strain>  (1) 
0

>  <r_i_glide_hbond>  (1) 
-0.2139963669218416

>  <r_i_glide_ligand_efficiency>  (1) 
-0.26750934089462663

>  <r_i_glide_ligand_efficiency_ln>  (1) 
-1.4385588922086718

>  <r_i_glide_ligand_efficiency_sa>  (1) 
-0.74957169450444339

>  <r_i_glide_lipo>  (1) 
-2.1855687405843254

>  <r_i_glide_metal>  (1) 
-0

>  <r_i_glide_rewards>  (1) 
-2.6678811780781504

>  <r_lp_Energy>  (1) 
27.896162

>  <s_epik_Chemistry_Notes>  (1) 
This compound has an imine and may undergo hydrolysis. This compound has a N-S or N-O group and may undergo hydrolysis at high or low pH.

>  <s_epik_cmdline>  (1) 
J2VwaWtfcHl0aG9uJywgJy1waHQnLCAnMS4wJywgJy1waCcsICc3LjQnLCAnLXRuJywgJzgnLCAnLW1hJywgJzUwMCcsICctaW1hZScsICc8aW5maWxlLm1hZT4nLCAnLW9tYWUnLCAnPG91dGZpbGUubWFlPic=

>  <s_epik_input>  (1) 
W0NIM11DMShbQ0gzXSlbQ0gyXVtDSDJdW05IXVtDQEhdMUMoPU8pL049W0NIXS9bQ0gyXVtDSDJdYzJbY0hdW2NIXWMoW2NIXVtjSF0yKU4oW05IMl0pW09IXQ==

>  <s_glide_docking_method>  (1) 
confgen

>  <s_i_glide_gridfile>  (1) 
gpcr_drd2_6luq_protein_autoprepared_prepared

>  <s_lp_Force_Field>  (1) 
S-OPLS

>  <s_lp_Variant>  (1) 
DiffSBDD_14-3

>  <s_m_source_file>  (1) 
generated_generic_title2_ligand_DiffSBDD_2026-06-23_prepared.sdf

>  <GenAI_Model>  (1) 
DiffSBDD

>  <Protein>  (1) 
generic_title2

$$$$
DiffSBDD_55
     RDKit          3D

  0  0  0  0  0  0  0  0  0  0999 V3000
M  V30 BEGIN CTAB
M  V30 COUNTS 28 29 0 0 1
M  V30 BEGIN ATOM
M  V30 1 C 11.775380 6.789666 -3.291437 0
M  V30 2 C 11.375124 7.550348 -5.589570 0
M  V30 3 C 12.175427 9.109837 -3.878010 0
M  V30 4 C 10.513979 8.380244 -7.725919 0 CFG=2
M  V30 5 O 8.464200 5.158060 -10.229745 0
M  V30 6 S 10.282907 7.628921 -9.352269 0
M  V30 7 N 8.575312 5.590194 -8.851345 0
M  V30 8 N 11.001182 7.267358 -6.941309 0
M  V30 9 C 11.375413 6.522219 -4.614430 0
M  V30 10 C 10.364408 5.990231 -7.185178 0
M  V30 11 C 9.151228 8.790227 -7.184896 0
M  V30 12 C 12.176156 8.080248 -2.925915 0
M  V30 13 F 12.565308 8.334184 -1.654386 0
M  V30 14 C 11.775366 8.856828 -5.204873 0
M  V30 15 C 9.961442 5.976498 -8.665736 0 CFG=2
M  V30 16 H 11.774493 5.996689 -2.557146 0
M  V30 17 H 12.487974 10.088343 -3.593399 0
M  V30 18 H 11.218333 9.202423 -7.825972 0
M  V30 19 H 8.017914 4.329166 -10.140981 0
M  V30 20 H 7.964781 6.415322 -8.845835 0
M  V30 21 H 11.075410 5.534830 -4.876982 0
M  V30 22 H 9.501908 5.854139 -6.530450 0
M  V30 23 H 11.083241 5.190855 -7.014159 0
M  V30 24 H 9.248699 9.190104 -6.180922 0
M  V30 25 H 8.648812 9.521507 -7.814934 0
M  V30 26 H 8.486609 7.934893 -7.101661 0
M  V30 27 H 11.791681 9.659574 -5.923184 0
M  V30 28 H 10.575291 5.251906 -9.183663 0
M  V30 END ATOM
M  V30 BEGIN BOND
M  V30 1 1 6 4
M  V30 2 1 7 5
M  V30 3 1 8 2
M  V30 4 1 8 4
M  V30 5 2 9 1
M  V30 6 1 9 2
M  V30 7 1 10 8
M  V30 8 1 11 4
M  V30 9 1 12 1
M  V30 10 2 12 3
M  V30 11 1 13 12
M  V30 12 2 14 2
M  V30 13 1 14 3
M  V30 14 1 15 6
M  V30 15 1 15 7
M  V30 16 1 15 10
M  V30 17 1 16 1
M  V30 18 1 17 3
M  V30 19 1 4 18 CFG=3
M  V30 20 1 19 5
M  V30 21 1 20 7
M  V30 22 1 21 9
M  V30 23 1 22 10
M  V30 24 1 23 10
M  V30 25 1 24 11
M  V30 26 1 25 11
M  V30 27 1 26 11
M  V30 28 1 27 14
M  V30 29 1 15 28 CFG=3
M  V30 END BOND
M  V30 END CTAB
M  END
>  <i_epik_Tot_Q>  (1) 
0

>  <i_epik_Tot_abs_Q>  (1) 
0

>  <i_i_glide_confnum>  (1) 
19

>  <i_i_glide_lignum>  (1) 
88

>  <i_i_glide_posenum>  (1) 
19

>  <i_i_glide_rotatable_bonds>  (1) 
3

>  <i_lp_mmshare_version>  (1) 
72125

>  <i_m_source_file_index>  (1) 
56

>  <i_f3d_flags>  (1) 
0

>  <num_sample>  (1) 
100

>  <b_lp_Chiralities_Consistent>  (1) 
1

>  <r_epik_Charging_Adjusted_Penalty>  (1) 
0

>  <r_epik_Ionization_Penalty>  (1) 
0.00013553305087233701

>  <r_epik_Ionization_Penalty_Charging>  (1) 
0

>  <r_epik_Ionization_Penalty_Neutral>  (1) 
0.00013553305087233701

>  <r_epik_State_Penalty>  (1) 
-0

>  <r_glide_ring_energy>  (1) 
1.903466321057584

>  <r_i_docking_score>  (1) 
-5.884240797697383

>  <r_i_glide_ecoul>  (1) 
-2.3781808677591645

>  <r_i_glide_eff_state_penalty>  (1) 
-0

>  <r_i_glide_einternal>  (1) 
1.0221061469781487

>  <r_i_glide_emodel>  (1) 
-30.310810547114965

>  <r_i_glide_emodel_strain>  (1) 
0.20440398305666818

>  <r_i_glide_energy>  (1) 
-23.592248266035774

>  <r_i_glide_erotb>  (1) 
0.65380846344162624

>  <r_i_glide_esite>  (1) 
-0.1535136417836295

>  <r_i_glide_evdw>  (1) 
-21.214067398276608

>  <r_i_glide_gscore>  (1) 
-5.884240797697383

>  <r_i_glide_gscore_strain>  (1) 
0

>  <r_i_glide_hbond>  (1) 
-0.16551811595304003

>  <r_i_glide_ligand_efficiency>  (1) 
-0.39228271984649221

>  <r_i_glide_ligand_efficiency_ln>  (1) 
-1.5868827223397097

>  <r_i_glide_ligand_efficiency_sa>  (1) 
-0.96745238023661639

>  <r_i_glide_lipo>  (1) 
-1.9583193649960478

>  <r_i_glide_metal>  (1) 
-0

>  <r_i_glide_rewards>  (1) 
-2.8432676383285869

>  <r_lp_Energy>  (1) 
2.3965259999999997

>  <r_lp_tautomer_probability>  (1) 
1

>  <s_epik_Chemistry_Notes>  (1) 
This compound contains an acetal/aminal-like group ( X-CH(R)-Y where X, Y are N, S, or O) that may be acid/base labile, releasing an aldehyde. This compound has a N-S or N-O group and may undergo hydrolysis at high or low pH.

>  <s_epik_cmdline>  (1) 
J2VwaWtfcHl0aG9uJywgJy1waHQnLCAnMS4wJywgJy1waCcsICc3LjQnLCAnLXRuJywgJzgnLCAnLW1hJywgJzUwMCcsICctaW1hZScsICc8aW5maWxlLm1hZT4nLCAnLW9tYWUnLCAnPG91dGZpbGUubWFlPic=

>  <s_epik_input>  (1) 
W2NIXTFbY0hdYyhGKVtjSF1bY0hdYzFOMltDSDJdW0NAQEhdKFtOSF1bT0hdKVNbQ0BIXTJbQ0gzXQ==

>  <s_glide_docking_method>  (1) 
confgen

>  <s_i_glide_gridfile>  (1) 
gpcr_drd2_6luq_protein_autoprepared_prepared

>  <s_lp_Force_Field>  (1) 
S-OPLS

>  <s_lp_Variant>  (1) 
DiffSBDD_55-1

>  <s_m_source_file>  (1) 
generated_generic_title2_ligand_DiffSBDD_2026-06-23_prepared.sdf

>  <GenAI_Model>  (1) 
DiffSBDD

>  <Protein>  (1) 
generic_title2

$$$$
DiffSBDD_8
     RDKit          3D

  0  0  0  0  0  0  0  0  0  0999 V3000
M  V30 BEGIN CTAB
M  V30 COUNTS 61 63 0 0 1
M  V30 BEGIN ATOM
M  V30 1 C 9.559677 8.351395 -9.908320 0
M  V30 2 O 11.777213 9.145752 -7.477770 0
M  V30 3 C 6.055534 6.845343 -16.949862 0
M  V30 4 N 10.574513 8.381965 -5.769004 0
M  V30 5 C 7.366511 3.353981 -14.211708 0 CFG=2
M  V30 6 C 7.400840 6.324159 -14.511111 0
M  V30 7 N 9.348225 6.449570 -7.429260 0
M  V30 8 C 5.653445 -0.021778 -14.161834 0
M  V30 9 C 7.551481 0.495173 -12.684057 0
M  V30 10 O 8.175582 1.399003 -15.159198 0
M  V30 11 C 6.616312 5.579997 -16.720381 0
M  V30 12 C 4.599634 0.245195 -15.232915 0
M  V30 13 O 7.816362 4.056436 -15.316105 0
M  V30 14 S 8.871966 7.614837 -12.441483 0
M  V30 15 C 8.429106 3.534214 -13.110478 0
M  V30 16 C 8.117227 6.062063 -13.148727 0 CFG=2
M  V30 17 N 8.983701 7.282673 -10.753388 0 CFG=1 CHG=1
M  V30 18 F 5.408325 7.099816 -18.112171 0
M  V30 19 C 7.965463 1.160715 -16.539624 0
M  V30 20 C 10.096496 6.411964 -10.402525 0
M  V30 21 C 9.122758 4.897274 -13.214599 0
M  V30 22 C 10.590485 7.392606 -9.355725 0 CFG=2
M  V30 23 C 6.465146 1.137759 -13.574139 0 CFG=1
M  V30 24 N 6.990518 2.016613 -14.622374 0
M  V30 25 C 11.022496 8.293871 -7.017257 0
M  V30 26 C 6.174216 7.849386 -15.979441 0
M  V30 27 C 6.856837 7.590462 -14.772759 0
M  V30 28 C 7.283000 5.303209 -15.507466 0
M  V30 29 C 10.612493 7.064694 -7.850886 0 CFG=1
M  V30 30 H 10.029620 9.187012 -10.384552 0
M  V30 31 H 8.944516 8.733817 -9.103643 0
M  V30 32 H 10.850318 9.161096 -5.192353 0
M  V30 33 H 9.944329 7.681265 -5.411153 0
M  V30 34 H 6.443254 3.829937 -13.872493 0
M  V30 35 H 9.367530 6.086798 -6.487742 0
M  V30 36 H 8.540382 7.062720 -7.506295 0
M  V30 37 H 6.322356 -0.807426 -14.518645 0
M  V30 38 H 5.104907 -0.409742 -13.307921 0
M  V30 39 H 7.114897 -0.236249 -12.002645 0
M  V30 40 H 8.311833 -0.009769 -13.273045 0
M  V30 41 H 8.092024 1.196831 -12.070679 0
M  V30 42 H 6.532121 4.810796 -17.474275 0
M  V30 43 H 4.192356 -0.694533 -15.605871 0
M  V30 44 H 3.775444 0.790106 -14.793868 0
M  V30 45 H 4.990909 0.790145 -16.089463 0
M  V30 46 H 7.944142 3.426060 -12.140803 0
M  V30 47 H 9.178654 2.750598 -13.184921 0
M  V30 48 H 7.323799 5.796338 -12.448131 0
M  V30 49 H 8.881580 0.761582 -16.972709 0
M  V30 50 H 7.180215 0.422824 -16.698153 0
M  V30 51 H 7.712221 2.073792 -17.080384 0
M  V30 52 H 9.778719 5.431245 -10.042565 0
M  V30 53 H 10.815758 6.390322 -11.222010 0
M  V30 54 H 9.822195 4.914557 -12.392131 0
M  V30 55 H 9.753157 4.973346 -14.101840 0
M  V30 56 H 11.578952 7.733477 -9.672883 0
M  V30 57 H 5.792244 1.730394 -12.953590 0
M  V30 58 H 5.754395 8.828196 -16.163363 0
M  V30 59 H 6.975607 8.372539 -14.052917 0
M  V30 60 H 11.401618 6.338250 -7.683502 0
M  V30 61 H 8.096717 7.063185 -10.289151 0
M  V30 END ATOM
M  V30 BEGIN BOND
M  V30 1 2 11 3
M  V30 2 1 12 8
M  V30 3 1 13 5
M  V30 4 1 15 5
M  V30 5 1 16 6
M  V30 6 1 16 14
M  V30 7 1 17 1
M  V30 8 1 17 14
M  V30 9 1 18 3
M  V30 10 1 19 10
M  V30 11 1 20 17
M  V30 12 1 21 15
M  V30 13 1 21 16
M  V30 14 1 22 1
M  V30 15 1 22 20
M  V30 16 1 23 8
M  V30 17 1 23 9
M  V30 18 1 24 5
M  V30 19 1 24 10
M  V30 20 1 24 23
M  V30 21 2 25 2
M  V30 22 1 25 4
M  V30 23 1 26 3
M  V30 24 1 27 6
M  V30 25 2 27 26
M  V30 26 2 28 6
M  V30 27 1 28 11
M  V30 28 1 28 13
M  V30 29 1 29 7
M  V30 30 1 29 22
M  V30 31 1 29 25
M  V30 32 1 30 1
M  V30 33 1 31 1
M  V30 34 1 32 4
M  V30 35 1 33 4
M  V30 36 1 5 34 CFG=1
M  V30 37 1 35 7
M  V30 38 1 36 7
M  V30 39 1 37 8
M  V30 40 1 38 8
M  V30 41 1 39 9
M  V30 42 1 40 9
M  V30 43 1 41 9
M  V30 44 1 42 11
M  V30 45 1 43 12
M  V30 46 1 44 12
M  V30 47 1 45 12
M  V30 48 1 46 15
M  V30 49 1 47 15
M  V30 50 1 16 48 CFG=1
M  V30 51 1 49 19
M  V30 52 1 50 19
M  V30 53 1 51 19
M  V30 54 1 52 20
M  V30 55 1 53 20
M  V30 56 1 54 21
M  V30 57 1 55 21
M  V30 58 1 22 56 CFG=3
M  V30 59 1 23 57 CFG=1
M  V30 60 1 58 26
M  V30 61 1 59 27
M  V30 62 1 29 60 CFG=3
M  V30 63 1 17 61 CFG=1
M  V30 END BOND
M  V30 END CTAB
M  END
>  <i_epik_Tot_Q>  (1) 
1

>  <i_epik_Tot_abs_Q>  (1) 
1

>  <i_i_glide_confnum>  (1) 
145

>  <i_i_glide_lignum>  (1) 
11

>  <i_i_glide_posenum>  (1) 
395

>  <i_i_glide_rotatable_bonds>  (1) 
8

>  <i_lp_mmshare_version>  (1) 
72125

>  <i_m_source_file_index>  (1) 
9

>  <i_f3d_flags>  (1) 
0

>  <num_sample>  (1) 
100

>  <b_lp_Chiralities_Consistent>  (1) 
1

>  <r_epik_Charging_Adjusted_Penalty>  (1) 
0.26758124344448359

>  <r_epik_Ionization_Penalty>  (1) 
0.27573061112751834

>  <r_epik_Ionization_Penalty_Charging>  (1) 
0.017350130917063531

>  <r_epik_Ionization_Penalty_Neutral>  (1) 
0.25838048021045479

>  <r_epik_State_Penalty>  (1) 
0.25023111252742003

>  <r_glide_ring_energy>  (1) 
0.47075466710011288

>  <r_i_docking_score>  (1) 
-5.8747992443060051

>  <r_i_glide_ecoul>  (1) 
-8.1952034609497098

>  <r_i_glide_eff_state_penalty>  (1) 
0.25023111252742003

>  <r_i_glide_einternal>  (1) 
13.801925949381104

>  <r_i_glide_emodel>  (1) 
-42.426757364395279

>  <r_i_glide_emodel_strain>  (1) 
2.6751179360047246

>  <r_i_glide_energy>  (1) 
-32.247308812350433

>  <r_i_glide_erotb>  (1) 
0.54307168116637361

>  <r_i_glide_esite>  (1) 
-0.10000000000000001

>  <r_i_glide_evdw>  (1) 
-24.052105351400723

>  <r_i_glide_gscore>  (1) 
-6.1250303568334248

>  <r_i_glide_gscore_strain>  (1) 
0

>  <r_i_glide_hbond>  (1) 
-0.19712552563449864

>  <r_i_glide_ligand_efficiency>  (1) 
-0.20257928428641397

>  <r_i_glide_ligand_efficiency_ln>  (1) 
-1.3451800548909001

>  <r_i_glide_ligand_efficiency_sa>  (1) 
-0.62238774364854632

>  <r_i_glide_lipo>  (1) 
-1.9270544685189388

>  <r_i_glide_metal>  (1) 
-0

>  <r_i_glide_rewards>  (1) 
-2.0120362571338668

>  <r_lp_Energy>  (1) 
46.913368999999996

>  <r_lp_tautomer_probability>  (1) 
1

>  <s_epik_Chemistry_Notes>  (1) 
This compound contains an acetal/aminal-like group ( X-CH(R)-Y where X, Y are N, S, or O) that may be acid/base labile, releasing an aldehyde. This compound has a N-S or N-O group and may undergo hydrolysis at high or low pH.

>  <s_epik_cmdline>  (1) 
J2VwaWtfcHl0aG9uJywgJy1waHQnLCAnMS4wJywgJy1waCcsICc3LjQnLCAnLXRuJywgJzgnLCAnLW1hJywgJzUwMCcsICctaW1hZScsICc8aW5maWxlLm1hZT4nLCAnLW9tYWUnLCAnPG91dGZpbGUubWFlPic=

>  <s_epik_input>  (1) 
Tz1DKFtOSDJdKVtDQEBIXShbTkgyXSlbQ0hdKFtDSDJdMSlbQ0gyXU4xU1tDQEBIXTJbQ0gyXVtDSDJdW0NASF0oTihPW0NIM10pW0NASF0oW0NIM10pW0NIMl1bQ0gzXSlPYyhjMjMpW2NIXWMoRilbY0hdW2NIXTM=

>  <s_glide_docking_method>  (1) 
confgen

>  <s_i_glide_gridfile>  (1) 
gpcr_drd2_6luq_protein_autoprepared_prepared

>  <s_lp_Force_Field>  (1) 
S-OPLS

>  <s_lp_Variant>  (1) 
DiffSBDD_8-1

>  <s_m_source_file>  (1) 
generated_generic_title2_ligand_DiffSBDD_2026-06-23_prepared.sdf

>  <GenAI_Model>  (1) 
DiffSBDD

>  <Protein>  (1) 
generic_title2

$$$$
DiffSBDD_67
     RDKit          3D

  0  0  0  0  0  0  0  0  0  0999 V3000
M  V30 BEGIN CTAB
M  V30 COUNTS 67 69 0 0 1
M  V30 BEGIN ATOM
M  V30 1 C 10.879220 5.108269 -16.757030 0
M  V30 2 C 7.946884 4.940037 -14.291453 0
M  V30 3 C 13.207814 4.165615 -17.037461 0
M  V30 4 C 8.820768 8.079272 -11.433183 0
M  V30 5 F 10.952454 4.632019 -19.107498 0
M  V30 6 C 10.517537 6.862298 -9.165000 0
M  V30 7 C 10.947818 6.789413 -5.176384 0
M  V30 8 C 11.787259 9.085747 -4.362401 0
M  V30 9 C 10.297416 6.414557 -7.690437 0 CFG=2
M  V30 10 C 11.150650 8.731318 -6.797488 0
M  V30 11 C 8.125308 4.473565 -16.761937 0
M  V30 12 C 8.751610 4.869678 -15.560315 0
M  V30 13 C 12.100995 9.442671 -5.821167 0
M  V30 14 C 6.779424 7.073422 -12.309187 0
M  V30 15 C 8.869902 4.399936 -17.956358 0
M  V30 16 C 8.818427 6.496958 -7.318945 0
M  V30 17 C 10.243382 4.714039 -17.956684 0
M  V30 18 C 7.788930 5.995768 -11.874386 0 CFG=2
M  V30 19 C 7.554288 8.390254 -12.219030 0
M  V30 20 O 6.764998 4.603780 -14.217534 0
M  V30 21 C 10.131995 5.190227 -15.563143 0
M  V30 22 N 8.585715 6.738892 -10.861694 0 CFG=1 CHG=1
M  V30 23 F 14.504592 4.361055 -16.795399 0
M  V30 24 C 12.748092 6.626798 -17.641705 0
M  V30 25 C 9.779244 6.068300 -10.293015 0
M  V30 26 C 12.376203 5.430287 -16.740194 0
M  V30 27 C 11.200408 7.187099 -6.661562 0
M  V30 28 C 8.680547 5.471318 -13.042143 0
M  V30 29 F 14.026178 6.968990 -17.479715 0
M  V30 30 C 11.775388 7.564177 -4.119096 0
M  V30 31 H 12.901360 3.339819 -16.394692 0
M  V30 32 H 13.111639 3.840096 -18.073082 0
M  V30 33 H 9.693827 8.081578 -12.086798 0
M  V30 34 H 8.975338 8.826101 -10.656800 0
M  V30 35 H 11.587141 6.790244 -9.359739 0
M  V30 36 H 10.300027 7.921387 -9.254118 0
M  V30 37 H 9.902151 6.960997 -4.935364 0
M  V30 38 H 11.112026 5.720833 -5.044436 0
M  V30 39 H 12.513155 9.558668 -3.699642 0
M  V30 40 H 10.824281 9.520796 -4.102507 0
M  V30 41 H 10.576334 5.361617 -7.634008 0
M  V30 42 H 11.434160 9.041066 -7.801790 0
M  V30 43 H 10.134272 9.091131 -6.635009 0
M  V30 44 H 7.073006 4.226823 -16.768833 0
M  V30 45 H 13.133282 9.190873 -6.059522 0
M  V30 46 H 12.018962 10.521854 -5.956139 0
M  V30 47 H 6.326678 6.928183 -13.288884 0
M  V30 48 H 5.957751 7.099959 -11.590443 0
M  V30 49 H 8.387358 4.097471 -18.873967 0
M  V30 50 H 8.540969 7.542504 -7.208575 0
M  V30 51 H 8.175407 6.040146 -8.070386 0
M  V30 52 H 8.591467 5.990251 -6.383076 0
M  V30 53 H 7.273805 5.157904 -11.401855 0
M  V30 54 H 7.784104 8.790147 -13.205230 0
M  V30 55 H 6.974991 9.136883 -11.674571 0
M  V30 56 H 10.623165 5.486885 -14.652254 0
M  V30 57 H 12.599125 6.419354 -18.701032 0
M  V30 58 H 12.175394 7.516037 -17.384498 0
M  V30 59 H 9.538874 5.053972 -9.970850 0
M  V30 60 H 10.461695 5.990225 -11.140141 0
M  V30 61 H 12.621668 5.727174 -15.719339 0
M  V30 62 H 12.211175 6.879428 -6.902828 0
M  V30 63 H 9.344811 4.684020 -12.684815 0
M  V30 64 H 9.307186 6.300400 -13.355888 0
M  V30 65 H 12.792285 7.190227 -4.030104 0
M  V30 66 H 11.375413 7.358838 -3.126943 0
M  V30 67 H 7.930544 6.959946 -10.098181 0
M  V30 END ATOM
M  V30 BEGIN BOND
M  V30 1 1 9 6
M  V30 2 1 12 2
M  V30 3 1 12 11
M  V30 4 1 13 8
M  V30 5 1 13 10
M  V30 6 2 15 11
M  V30 7 1 16 9
M  V30 8 2 17 1
M  V30 9 1 17 5
M  V30 10 1 17 15
M  V30 11 1 18 14
M  V30 12 1 19 4
M  V30 13 1 19 14
M  V30 14 2 20 2
M  V30 15 1 21 1
M  V30 16 2 21 12
M  V30 17 1 22 4
M  V30 18 1 22 18
M  V30 19 1 23 3
M  V30 20 1 25 6
M  V30 21 1 25 22
M  V30 22 1 26 1
M  V30 23 1 26 3
M  V30 24 1 26 24
M  V30 25 1 27 7
M  V30 26 1 27 9
M  V30 27 1 27 10
M  V30 28 1 28 2
M  V30 29 1 28 18
M  V30 30 1 29 24
M  V30 31 1 30 7
M  V30 32 1 30 8
M  V30 33 1 31 3
M  V30 34 1 32 3
M  V30 35 1 33 4
M  V30 36 1 34 4
M  V30 37 1 35 6
M  V30 38 1 36 6
M  V30 39 1 37 7
M  V30 40 1 38 7
M  V30 41 1 39 8
M  V30 42 1 40 8
M  V30 43 1 9 41 CFG=3
M  V30 44 1 42 10
M  V30 45 1 43 10
M  V30 46 1 44 11
M  V30 47 1 45 13
M  V30 48 1 46 13
M  V30 49 1 47 14
M  V30 50 1 48 14
M  V30 51 1 49 15
M  V30 52 1 50 16
M  V30 53 1 51 16
M  V30 54 1 52 16
M  V30 55 1 18 53 CFG=1
M  V30 56 1 54 19
M  V30 57 1 55 19
M  V30 58 1 56 21
M  V30 59 1 57 24
M  V30 60 1 58 24
M  V30 61 1 59 25
M  V30 62 1 60 25
M  V30 63 1 61 26
M  V30 64 1 62 27
M  V30 65 1 63 28
M  V30 66 1 64 28
M  V30 67 1 65 30
M  V30 68 1 66 30
M  V30 69 1 22 67 CFG=1
M  V30 END BOND
M  V30 END CTAB
M  END
>  <i_epik_Tot_Q>  (1) 
1

>  <i_epik_Tot_abs_Q>  (1) 
1

>  <i_i_glide_confnum>  (1) 
204

>  <i_i_glide_lignum>  (1) 
109

>  <i_i_glide_posenum>  (1) 
89

>  <i_i_glide_rotatable_bonds>  (1) 
10

>  <i_lp_mmshare_version>  (1) 
72125

>  <i_m_source_file_index>  (1) 
68

>  <i_f3d_flags>  (1) 
0

>  <num_sample>  (1) 
100

>  <b_lp_Chiralities_Consistent>  (1) 
1

>  <r_epik_Charging_Adjusted_Penalty>  (1) 
0.0091991127420811905

>  <r_epik_Ionization_Penalty>  (1) 
0.0045995563710408641

>  <r_epik_Ionization_Penalty_Charging>  (1) 
0.0045995563710406013

>  <r_epik_Ionization_Penalty_Neutral>  (1) 
2.6311653613664267e-16

>  <r_epik_State_Penalty>  (1) 
0.0045995563710405883

>  <r_glide_ring_energy>  (1) 
0

>  <r_i_docking_score>  (1) 
-5.8630926309776248

>  <r_i_glide_ecoul>  (1) 
-7.8362438422437632

>  <r_i_glide_eff_state_penalty>  (1) 
0.0045995563710405883

>  <r_i_glide_einternal>  (1) 
17.130299667599886

>  <r_i_glide_emodel>  (1) 
-42.247460423619124

>  <r_i_glide_emodel_strain>  (1) 
1.8467277998749481

>  <r_i_glide_energy>  (1) 
-38.171927621599956

>  <r_i_glide_erotb>  (1) 
0.77002039440311598

>  <r_i_glide_esite>  (1) 
-0.10000000000000001

>  <r_i_glide_evdw>  (1) 
-30.335683779356195

>  <r_i_glide_gscore>  (1) 
-5.8676921873486654

>  <r_i_glide_gscore_strain>  (1) 
0

>  <r_i_glide_hbond>  (1) 
-0.18668401907505622

>  <r_i_glide_ligand_efficiency>  (1) 
-0.19543642103258749

>  <r_i_glide_ligand_efficiency_ln>  (1) 
-1.3321585292689986

>  <r_i_glide_ligand_efficiency_sa>  (1) 
-0.60726640027974033

>  <r_i_glide_lipo>  (1) 
-2.2012355180446228

>  <r_i_glide_metal>  (1) 
-0

>  <r_i_glide_rewards>  (1) 
-1.4575722793277284

>  <r_lp_Energy>  (1) 
33.086953000000001

>  <r_lp_tautomer_probability>  (1) 
0.99990000499974985

>  <s_epik_cmdline>  (1) 
J2VwaWtfcHl0aG9uJywgJy1waHQnLCAnMS4wJywgJy1waCcsICc3LjQnLCAnLXRuJywgJzgnLCAnLW1hJywgJzUwMCcsICctaW1hZScsICc8aW5maWxlLm1hZT4nLCAnLW9tYWUnLCAnPG91dGZpbGUubWFlPic=

>  <s_epik_input>  (1) 
RltDSDJdW0NIXShbQ0gyXUYpYzFjKEYpW2NIXVtjSF1jKFtjSF0xKUMoPU8pW0NIMl1bQ0BASF0yW0NIMl1bQ0gyXVtDSDJdTjJbQ0gyXVtDSDJdW0NASF0oW0NIM10pW0NIXTNbQ0gyXVtDSDJdW0NIMl1bQ0gyXVtDSDJdMw==

>  <s_glide_docking_method>  (1) 
confgen

>  <s_i_glide_gridfile>  (1) 
gpcr_drd2_6luq_protein_autoprepared_prepared

>  <s_lp_Force_Field>  (1) 
S-OPLS

>  <s_lp_Variant>  (1) 
DiffSBDD_67-1

>  <s_m_source_file>  (1) 
generated_generic_title2_ligand_DiffSBDD_2026-06-23_prepared.sdf

>  <GenAI_Model>  (1) 
DiffSBDD

>  <Protein>  (1) 
generic_title2

$$$$
DiffSBDD_14
     RDKit          3D

  0  0  0  0  0  0  0  0  0  0999 V3000
M  V30 BEGIN CTAB
M  V30 COUNTS 47 48 0 0 1
M  V30 BEGIN ATOM
M  V30 1 N 9.425419 6.663939 -11.322120 0
M  V30 2 C 8.526082 4.853195 -14.683779 0
M  V30 3 N 9.375401 4.959366 -13.479611 0 CHG=1
M  V30 4 C 10.880063 6.927653 -6.127649 0
M  V30 5 C 8.975425 5.374981 -11.043154 0
M  V30 6 C 7.145784 4.384037 -14.208654 0
M  V30 7 C 9.981721 7.179339 -8.941589 0
M  V30 8 C 6.079900 3.975180 -11.934750 0
M  V30 9 C 11.329478 6.744670 -4.806905 0
M  V30 10 C 10.879809 8.217352 -6.704236 0
M  V30 11 C 11.775424 7.846624 -4.046331 0
M  V30 12 C 11.775208 9.139783 -4.625224 0
M  V30 13 C 11.330205 9.320954 -5.948957 0
M  V30 14 C 9.832094 7.492998 -10.431797 0
M  V30 15 O 8.898244 4.790227 -9.962846 0
M  V30 16 C 6.593947 6.311533 -12.692955 0
M  V30 17 C 10.397020 8.429302 -8.138114 0
M  V30 18 N 12.126076 6.468380 -1.985389 0
M  V30 19 N 12.219819 7.651250 -2.721438 0
M  V30 20 C 8.544177 4.612516 -12.308340 0 CFG=1
M  V30 21 C 7.067290 4.836410 -12.745262 0
M  V30 22 O 12.207703 8.808353 -1.932278 0
M  V30 23 H 8.957833 4.166274 -15.412289 0
M  V30 24 H 8.460401 5.835870 -15.152534 0
M  V30 25 H 9.641020 5.926551 -13.348909 0
M  V30 26 H 10.535587 6.076501 -6.693831 0
M  V30 27 H 7.102044 3.294893 -14.266263 0
M  V30 28 H 6.334254 4.769517 -14.827679 0
M  V30 29 H 10.741262 6.403000 -8.848156 0
M  V30 30 H 9.043531 6.802328 -8.531112 0
M  V30 31 H 6.328390 2.915108 -11.987853 0
M  V30 32 H 6.074923 4.260271 -10.881495 0
M  V30 33 H 5.061542 4.087822 -12.308192 0
M  V30 34 H 11.325734 5.755350 -4.375283 0
M  V30 35 H 12.116868 9.990172 -4.056714 0
M  V30 36 H 11.332622 10.308952 -6.385029 0
M  V30 37 H 10.111149 8.512430 -10.703545 0
M  V30 38 H 7.261913 6.981433 -13.234994 0
M  V30 39 H 5.601716 6.422346 -13.131827 0
M  V30 40 H 6.524018 6.678238 -11.667089 0
M  V30 41 H 9.548758 9.115100 -8.109918 0
M  V30 42 H 11.201655 8.950727 -8.659666 0
M  V30 43 H 11.202337 6.415659 -1.560715 0
M  V30 44 H 12.231750 5.671492 -2.610126 0
M  V30 45 H 8.705700 3.547614 -12.126844 0
M  V30 46 H 13.106528 9.100015 -1.871175 0
M  V30 47 H 10.215705 4.390585 -13.530389 0
M  V30 END ATOM
M  V30 BEGIN BOND
M  V30 1 1 3 2
M  V30 2 1 5 1
M  V30 3 1 6 2
M  V30 4 2 9 4
M  V30 5 1 10 4
M  V30 6 1 11 9
M  V30 7 2 12 11
M  V30 8 2 13 10
M  V30 9 1 13 12
M  V30 10 2 14 1
M  V30 11 1 14 7
M  V30 12 2 15 5
M  V30 13 1 17 7
M  V30 14 1 17 10
M  V30 15 1 19 11
M  V30 16 1 19 18
M  V30 17 1 20 3
M  V30 18 1 20 5
M  V30 19 1 21 6
M  V30 20 1 21 8
M  V30 21 1 21 16
M  V30 22 1 21 20
M  V30 23 1 22 19
M  V30 24 1 23 2
M  V30 25 1 24 2
M  V30 26 1 25 3
M  V30 27 1 26 4
M  V30 28 1 27 6
M  V30 29 1 28 6
M  V30 30 1 29 7
M  V30 31 1 30 7
M  V30 32 1 31 8
M  V30 33 1 32 8
M  V30 34 1 33 8
M  V30 35 1 34 9
M  V30 36 1 35 12
M  V30 37 1 36 13
M  V30 38 1 37 14
M  V30 39 1 38 16
M  V30 40 1 39 16
M  V30 41 1 40 16
M  V30 42 1 41 17
M  V30 43 1 42 17
M  V30 44 1 43 18
M  V30 45 1 44 18
M  V30 46 1 20 45 CFG=1
M  V30 47 1 46 22
M  V30 48 1 47 3
M  V30 END BOND
M  V30 END CTAB
M  END
>  <i_epik_Tot_Q>  (1) 
1

>  <i_epik_Tot_abs_Q>  (1) 
1

>  <i_i_glide_confnum>  (1) 
104

>  <i_i_glide_lignum>  (1) 
29

>  <i_i_glide_posenum>  (1) 
233

>  <i_i_glide_rotatable_bonds>  (1) 
7

>  <i_lp_mmshare_version>  (1) 
72125

>  <i_m_source_file_index>  (1) 
15

>  <i_f3d_flags>  (1) 
0

>  <num_sample>  (1) 
100

>  <b_lp_Chiralities_Consistent>  (1) 
1

>  <r_epik_Charging_Adjusted_Penalty>  (1) 
1.3617227199011863

>  <r_epik_Ionization_Penalty>  (1) 
0.68407859148239814

>  <r_epik_Ionization_Penalty_Charging>  (1) 
0.68086135995059327

>  <r_epik_Ionization_Penalty_Neutral>  (1) 
0.0032172315318048095

>  <r_epik_State_Penalty>  (1) 
0.68086135995059305

>  <r_glide_ring_energy>  (1) 
0

>  <r_i_docking_score>  (1) 
-5.862224038619642

>  <r_i_glide_ecoul>  (1) 
-6.2900465891612871

>  <r_i_glide_eff_state_penalty>  (1) 
0.68086135995059305

>  <r_i_glide_einternal>  (1) 
3.7982625864223793

>  <r_i_glide_emodel>  (1) 
-66.765892856454087

>  <r_i_glide_emodel_strain>  (1) 
0.0086713884622042769

>  <r_i_glide_energy>  (1) 
-45.535672676264262

>  <r_i_glide_erotb>  (1) 
1.1872890279772172

>  <r_i_glide_esite>  (1) 
-0.092871941724554485

>  <r_i_glide_evdw>  (1) 
-39.245626087102977

>  <r_i_glide_gscore>  (1) 
-6.5430853985702351

>  <r_i_glide_gscore_strain>  (1) 
0

>  <r_i_glide_hbond>  (1) 
-0.063243286360796389

>  <r_i_glide_ligand_efficiency>  (1) 
-0.26646472902816554

>  <r_i_glide_ligand_efficiency_ln>  (1) 
-1.432941384855924

>  <r_i_glide_ligand_efficiency_sa>  (1) 
-0.74664465096935018

>  <r_i_glide_lipo>  (1) 
-2.1701907918214225

>  <r_i_glide_metal>  (1) 
-0

>  <r_i_glide_rewards>  (1) 
-2.4982801139113362

>  <r_lp_Energy>  (1) 
33.931866999999997

>  <s_epik_Chemistry_Notes>  (1) 
This compound has an imine and may undergo hydrolysis. This compound has a N-S or N-O group and may undergo hydrolysis at high or low pH.

>  <s_epik_cmdline>  (1) 
J2VwaWtfcHl0aG9uJywgJy1waHQnLCAnMS4wJywgJy1waCcsICc3LjQnLCAnLXRuJywgJzgnLCAnLW1hJywgJzUwMCcsICctaW1hZScsICc8aW5maWxlLm1hZT4nLCAnLW9tYWUnLCAnPG91dGZpbGUubWFlPic=

>  <s_epik_input>  (1) 
W0NIM11DMShbQ0gzXSlbQ0gyXVtDSDJdW05IXVtDQEhdMUMoPU8pL049W0NIXVxbQ0gyXVtDSDJdYzJbY0hdW2NIXWMoW2NIXVtjSF0yKU4oW05IMl0pW09IXQ==

>  <s_glide_docking_method>  (1) 
confgen

>  <s_i_glide_gridfile>  (1) 
gpcr_drd2_6luq_protein_autoprepared_prepared

>  <s_lp_Force_Field>  (1) 
S-OPLS

>  <s_lp_Variant>  (1) 
DiffSBDD_14-4

>  <s_m_source_file>  (1) 
generated_generic_title2_ligand_DiffSBDD_2026-06-23_prepared.sdf

>  <GenAI_Model>  (1) 
DiffSBDD

>  <Protein>  (1) 
generic_title2

$$$$
DiffSBDD_63
     RDKit          3D

  0  0  0  0  0  0  0  0  0  0999 V3000
M  V30 BEGIN CTAB
M  V30 COUNTS 47 48 0 0 1
M  V30 BEGIN ATOM
M  V30 1 C 7.002505 0.546003 -15.466464 0
M  V30 2 C 6.875266 2.540115 -13.474401 0
M  V30 3 C 10.921736 7.805655 -6.617552 0
M  V30 4 C 10.635345 6.585616 -6.092411 0
M  V30 5 C 6.442311 1.226025 -13.191367 0
M  V30 6 C 9.424374 7.398520 -11.454604 0
M  V30 7 C 12.297838 9.336880 -3.495027 0
M  V30 8 F 7.062394 -0.409767 -16.422443 0
M  V30 9 C 8.220653 5.321085 -12.042981 0
M  V30 10 C 10.052997 7.286560 -8.943069 0
M  V30 11 C 11.513262 8.861721 -5.767627 0
M  V30 12 O 11.774870 10.002906 -6.149145 0
M  V30 13 N 8.126654 4.063617 -11.997517 0
M  V30 14 C 7.335230 7.080903 -13.748245 0
M  V30 15 S 12.575411 8.390224 -1.985025 0
M  V30 16 C 6.506758 0.232094 -14.186971 0
M  V30 17 F 7.797704 4.105220 -15.045369 0
M  V30 18 C 7.436401 1.853103 -15.752881 0
M  V30 19 S 5.775411 5.027091 -12.899401 0
M  V30 20 C 7.069943 6.215060 -12.499428 0 CFG=1
M  V30 21 O 9.380697 5.992879 -11.687627 0
M  V30 22 C 10.460133 7.715285 -10.363889 0
M  V30 23 N 10.685300 8.144028 -7.944360 0
M  V30 24 N 11.748397 8.453749 -4.507222 0
M  V30 25 C 6.805521 3.613679 -12.390286 0 CFG=1
M  V30 26 C 7.375417 2.850815 -14.761994 0
M  V30 27 H 6.061761 0.980487 -12.210732 0
M  V30 28 H 9.758801 7.875727 -12.375769 0
M  V30 29 H 8.479268 7.860207 -11.182093 0
M  V30 30 H 13.237402 9.779289 -3.829223 0
M  V30 31 H 11.584335 10.133151 -3.282281 0
M  V30 32 H 8.975411 7.362770 -8.806622 0
M  V30 33 H 10.315475 6.237546 -8.809189 0
M  V30 34 H 7.885194 7.990229 -13.523268 0
M  V30 35 H 6.394226 7.407948 -14.191423 0
M  V30 36 H 7.880026 6.532191 -14.515775 0
M  V30 37 H 13.116622 9.407292 -1.301046 0
M  V30 38 H 6.175410 -0.773295 -13.968908 0
M  V30 39 H 7.817509 2.091314 -16.734463 0
M  V30 40 H 6.688047 6.807246 -11.667444 0
M  V30 41 H 10.611608 8.790227 -10.372141 0
M  V30 42 H 11.427270 7.282463 -10.621493 0
M  V30 43 H 11.523620 7.507450 -4.241754 0
M  V30 44 H 6.300585 3.190308 -11.522431 0
M  V30 45 H 10.201170 5.810627 -6.703809 0
M  V30 46 H 10.825925 6.345662 -5.058643 0
M  V30 47 H 10.920427 9.080431 -8.242482 0
M  V30 END ATOM
M  V30 BEGIN BOND
M  V30 1 2 4 3
M  V30 2 1 5 2
M  V30 3 1 8 1
M  V30 4 1 11 3
M  V30 5 2 12 11
M  V30 6 2 13 9
M  V30 7 1 15 7
M  V30 8 1 16 1
M  V30 9 2 16 5
M  V30 10 2 18 1
M  V30 11 1 20 9
M  V30 12 1 20 14
M  V30 13 1 20 19
M  V30 14 1 21 6
M  V30 15 1 21 9
M  V30 16 1 22 6
M  V30 17 1 22 10
M  V30 18 1 23 3
M  V30 19 1 23 10
M  V30 20 1 24 7
M  V30 21 1 24 11
M  V30 22 1 25 2
M  V30 23 1 25 13
M  V30 24 1 25 19
M  V30 25 2 26 2
M  V30 26 1 26 17
M  V30 27 1 26 18
M  V30 28 1 27 5
M  V30 29 1 28 6
M  V30 30 1 29 6
M  V30 31 1 30 7
M  V30 32 1 31 7
M  V30 33 1 32 10
M  V30 34 1 33 10
M  V30 35 1 34 14
M  V30 36 1 35 14
M  V30 37 1 36 14
M  V30 38 1 37 15
M  V30 39 1 38 16
M  V30 40 1 39 18
M  V30 41 1 20 40 CFG=1
M  V30 42 1 41 22
M  V30 43 1 42 22
M  V30 44 1 43 24
M  V30 45 1 25 44 CFG=1
M  V30 46 1 45 4
M  V30 47 1 46 4
M  V30 48 1 47 23
M  V30 END BOND
M  V30 END CTAB
M  END
>  <i_epik_Tot_Q>  (1) 
0

>  <i_epik_Tot_abs_Q>  (1) 
0

>  <i_i_glide_confnum>  (1) 
108

>  <i_i_glide_lignum>  (1) 
100

>  <i_i_glide_posenum>  (1) 
370

>  <i_i_glide_rotatable_bonds>  (1) 
11

>  <i_lp_mmshare_version>  (1) 
72125

>  <i_m_source_file_index>  (1) 
64

>  <i_f3d_flags>  (1) 
0

>  <num_sample>  (1) 
100

>  <b_lp_Chiralities_Consistent>  (1) 
1

>  <r_epik_Charging_Adjusted_Penalty>  (1) 
0.013849271164821807

>  <r_epik_Ionization_Penalty>  (1) 
0.12391676861929035

>  <r_epik_Ionization_Penalty_Charging>  (1) 
0.013849271164821807

>  <r_epik_Ionization_Penalty_Neutral>  (1) 
0.11006749745446855

>  <r_epik_State_Penalty>  (1) 
-0

>  <r_glide_ring_energy>  (1) 
0

>  <r_i_docking_score>  (1) 
-5.8589164492988379

>  <r_i_glide_ecoul>  (1) 
-1.9323018957511571

>  <r_i_glide_eff_state_penalty>  (1) 
-0

>  <r_i_glide_einternal>  (1) 
10.311533196544156

>  <r_i_glide_emodel>  (1) 
-57.074166614443925

>  <r_i_glide_emodel_strain>  (1) 
1.8012203532733331

>  <r_i_glide_energy>  (1) 
-48.747411498214291

>  <r_i_glide_erotb>  (1) 
1.2167697096945405

>  <r_i_glide_esite>  (1) 
-0.021997542277507498

>  <r_i_glide_evdw>  (1) 
-46.815109602463131

>  <r_i_glide_gscore>  (1) 
-5.8589164492988379

>  <r_i_glide_gscore_strain>  (1) 
0

>  <r_i_glide_hbond>  (1) 
-0.30369586555370676

>  <r_i_glide_ligand_efficiency>  (1) 
-0.22534294035764763

>  <r_i_glide_ligand_efficiency_ln>  (1) 
-1.3759473034449272

>  <r_i_glide_ligand_efficiency_sa>  (1) 
-0.66757757485288771

>  <r_i_glide_lipo>  (1) 
-2.0674670310227103

>  <r_i_glide_metal>  (1) 
-0

>  <r_i_glide_rewards>  (1) 
-2.0519249556536239

>  <r_lp_Energy>  (1) 
18.833002999999998

>  <r_lp_tautomer_probability>  (1) 
1

>  <s_epik_Chemistry_Notes>  (1) 
This compound has an imine and may undergo hydrolysis. This compound contains an acetal/aminal-like group ( X-CH(R)-Y where X, Y are N, S, or O) that may be acid/base labile, releasing an aldehyde.

>  <s_epik_cmdline>  (1) 
J2VwaWtfcHl0aG9uJywgJy1waHQnLCAnMS4wJywgJy1waCcsICc3LjQnLCAnLXRuJywgJzgnLCAnLW1hJywgJzUwMCcsICctaW1hZScsICc8aW5maWxlLm1hZT4nLCAnLW9tYWUnLCAnPG91dGZpbGUubWFlPic=

>  <s_epik_input>  (1) 
RmMxW2NIXVtjSF1jKGMoRilbY0hdMSlbQ0BIXShTW0NAQEhdMltDSDNdKU49QzJPW0NIMl1bQ0gyXVtDSDJdW05IXUMoPVtDSDJdKUMoPU8pW05IXVtDSDJdW1NIXQ==

>  <s_glide_docking_method>  (1) 
confgen

>  <s_i_glide_gridfile>  (1) 
gpcr_drd2_6luq_protein_autoprepared_prepared

>  <s_lp_Force_Field>  (1) 
S-OPLS

>  <s_lp_Variant>  (1) 
DiffSBDD_63-1

>  <s_m_source_file>  (1) 
generated_generic_title2_ligand_DiffSBDD_2026-06-23_prepared.sdf

>  <GenAI_Model>  (1) 
DiffSBDD

>  <Protein>  (1) 
generic_title2

$$$$
DiffSBDD_20
     RDKit          3D

  0  0  0  0  0  0  0  0  0  0999 V3000
M  V30 BEGIN CTAB
M  V30 COUNTS 63 66 0 0 1
M  V30 BEGIN ATOM
M  V30 1 C 11.467148 9.528091 -5.730250 0
M  V30 2 C 6.673372 4.513347 -14.337410 0 CFG=2
M  V30 3 O 7.334138 0.897033 -16.265730 0
M  V30 4 O 5.882285 7.140901 -11.912747 0
M  V30 5 C 7.063492 3.265868 -13.594293 0
M  V30 6 O 8.575288 -0.009773 -13.985014 0
M  V30 7 C 7.898889 5.233436 -14.820319 0 CFG=2
M  V30 8 C 11.040871 6.765283 -5.384376 0
M  V30 9 N 7.987013 6.583865 -12.782496 0
M  V30 10 C 8.122470 3.076477 -16.402423 0
M  V30 11 C 5.775432 -0.261847 -11.987896 0
M  V30 12 C 11.775403 8.918972 -4.578835 0
M  V30 13 C 11.573894 7.497672 -4.385024 0
M  V30 14 C 8.799174 7.160667 -11.705674 0
M  V30 15 C 11.939762 6.848606 -3.065573 0
M  V30 16 C 8.649388 4.424921 -15.881980 0
M  V30 17 C 6.674546 6.099627 -12.372976 0 CFG=2
M  V30 18 C 7.477901 2.128163 -14.176592 0
M  V30 19 C 7.796022 0.926187 -13.301130 0 CFG=1
M  V30 20 C 5.827722 5.461313 -13.496571 0
M  V30 21 C 10.604136 7.315919 -6.708041 0 CFG=2
M  V30 22 C 8.748628 5.616615 -13.585306 0
M  V30 23 C 7.646418 2.045795 -15.646660 0
M  V30 24 C 10.401046 6.435269 -7.953470 0 CFG=2
M  V30 25 C 6.656736 0.298895 -12.617136 0
M  V30 26 C 10.887533 8.803688 -6.928298 0
M  V30 27 S 9.375338 5.921903 -10.492889 0
M  V30 28 C 4.975414 6.747353 -10.885923 0
M  V30 29 C 10.370109 6.969235 -9.382761 0
M  V30 30 C 9.236462 6.818353 -7.102511 0
M  V30 31 H 11.631459 10.589959 -5.836501 0
M  V30 32 H 6.063971 4.229920 -15.185022 0
M  V30 33 H 7.477431 1.018934 -17.191800 0
M  V30 34 H 6.963051 3.298942 -12.519019 0
M  V30 35 H 8.217948 -0.082910 -14.861269 0
M  V30 36 H 7.581188 6.158284 -15.305694 0
M  V30 37 H 10.889451 5.707304 -5.233174 0
M  V30 38 H 8.217424 2.928478 -17.468891 0
M  V30 39 H 5.004407 -0.785266 -11.471211 0
M  V30 40 H 12.186903 9.505701 -3.769944 0
M  V30 41 H 9.664649 7.662580 -12.138093 0
M  V30 42 H 8.220494 7.924566 -11.185099 0
M  V30 43 H 11.799936 7.551283 -2.243623 0
M  V30 44 H 11.307231 5.985191 -2.864560 0
M  V30 45 H 12.975454 6.529944 -3.055944 0
M  V30 46 H 8.722551 5.060101 -16.765743 0
M  V30 47 H 9.687849 4.284761 -15.584572 0
M  V30 48 H 6.826245 5.379001 -11.567054 0
M  V30 49 H 8.426557 1.298957 -12.495599 0
M  V30 50 H 5.435289 6.258842 -14.129870 0
M  V30 51 H 4.975439 4.932415 -13.072775 0
M  V30 52 H 9.718212 5.990221 -13.895931 0
M  V30 53 H 8.992102 4.741240 -12.984075 0
M  V30 54 H 10.751897 5.408776 -7.869772 0
M  V30 55 H 11.568000 8.928287 -7.770841 0
M  V30 56 H 9.946122 9.279972 -7.184964 0
M  V30 57 H 4.338289 7.589618 -10.620625 0
M  V30 58 H 4.344369 5.921396 -11.185004 0
M  V30 59 H 5.461711 6.390217 -9.985261 0
M  V30 60 H 11.383769 7.067551 -9.768868 0
M  V30 61 H 9.933052 7.968411 -9.386192 0
M  V30 62 H 8.570707 7.564783 -7.509502 0
M  V30 63 H 8.760586 6.035034 -6.515436 0
M  V30 END ATOM
M  V30 BEGIN BOND
M  V30 1 1 5 2
M  V30 2 1 7 2
M  V30 3 2 12 1
M  V30 4 2 13 8
M  V30 5 1 13 12
M  V30 6 1 14 9
M  V30 7 1 15 13
M  V30 8 1 16 7
M  V30 9 1 16 10
M  V30 10 1 17 4
M  V30 11 1 17 9
M  V30 12 2 18 5
M  V30 13 1 19 6
M  V30 14 1 19 18
M  V30 15 1 20 2
M  V30 16 1 20 17
M  V30 17 1 21 8
M  V30 18 1 22 7
M  V30 19 1 22 9
M  V30 20 1 23 3
M  V30 21 2 23 10
M  V30 22 1 23 18
M  V30 23 1 24 21
M  V30 24 3 25 11
M  V30 25 1 25 19
M  V30 26 1 26 1
M  V30 27 1 21 26 CFG=3
M  V30 28 1 27 14
M  V30 29 1 28 4
M  V30 30 1 29 24
M  V30 31 1 29 27
M  V30 32 1 30 21
M  V30 33 1 30 24
M  V30 34 1 31 1
M  V30 35 1 2 32 CFG=3
M  V30 36 1 33 3
M  V30 37 1 34 5
M  V30 38 1 35 6
M  V30 39 1 7 36 CFG=3
M  V30 40 1 37 8
M  V30 41 1 38 10
M  V30 42 1 39 11
M  V30 43 1 40 12
M  V30 44 1 41 14
M  V30 45 1 42 14
M  V30 46 1 43 15
M  V30 47 1 44 15
M  V30 48 1 45 15
M  V30 49 1 46 16
M  V30 50 1 47 16
M  V30 51 1 17 48 CFG=1
M  V30 52 1 19 49 CFG=1
M  V30 53 1 50 20
M  V30 54 1 51 20
M  V30 55 1 52 22
M  V30 56 1 53 22
M  V30 57 1 24 54 CFG=3
M  V30 58 1 55 26
M  V30 59 1 56 26
M  V30 60 1 57 28
M  V30 61 1 58 28
M  V30 62 1 59 28
M  V30 63 1 60 29
M  V30 64 1 61 29
M  V30 65 1 62 30
M  V30 66 1 63 30
M  V30 END BOND
M  V30 END CTAB
M  END
>  <i_epik_Tot_Q>  (1) 
0

>  <i_epik_Tot_abs_Q>  (1) 
0

>  <i_i_glide_confnum>  (1) 
253

>  <i_i_glide_lignum>  (1) 
37

>  <i_i_glide_posenum>  (1) 
363

>  <i_i_glide_rotatable_bonds>  (1) 
9

>  <i_lp_mmshare_version>  (1) 
72125

>  <i_m_source_file_index>  (1) 
21

>  <i_f3d_flags>  (1) 
0

>  <num_sample>  (1) 
100

>  <b_lp_Chiralities_Consistent>  (1) 
1

>  <r_epik_Charging_Adjusted_Penalty>  (1) 
0.01950513855595163

>  <r_epik_Ionization_Penalty>  (1) 
0.020135141086582313

>  <r_epik_Ionization_Penalty_Charging>  (1) 
0

>  <r_epik_Ionization_Penalty_Neutral>  (1) 
0.020135141086582313

>  <r_epik_State_Penalty>  (1) 
0.01950513855595163

>  <r_glide_ring_energy>  (1) 
0

>  <r_i_docking_score>  (1) 
-5.8510983421497915

>  <r_i_glide_ecoul>  (1) 
-1.0488805066133986

>  <r_i_glide_eff_state_penalty>  (1) 
0.01950513855595163

>  <r_i_glide_einternal>  (1) 
5.1249835678975888

>  <r_i_glide_emodel>  (1) 
-42.281984754722437

>  <r_i_glide_emodel_strain>  (1) 
2.2372890766252169

>  <r_i_glide_energy>  (1) 
-38.14628149735821

>  <r_i_glide_erotb>  (1) 
0.65156125310283941

>  <r_i_glide_esite>  (1) 
-0.043355979893235808

>  <r_i_glide_evdw>  (1) 
-37.097400990744809

>  <r_i_glide_gscore>  (1) 
-5.8706034807057428

>  <r_i_glide_gscore_strain>  (1) 
0

>  <r_i_glide_hbond>  (1) 
0

>  <r_i_glide_ligand_efficiency>  (1) 
-0.19503661140499304

>  <r_i_glide_ligand_efficiency_ln>  (1) 
-1.3294332961590707

>  <r_i_glide_ligand_efficiency_sa>  (1) 
-0.60602409880868557

>  <r_i_glide_lipo>  (1) 
-3.275190799508334

>  <r_i_glide_metal>  (1) 
-0

>  <r_i_glide_rewards>  (1) 
-1.1914158288777628

>  <r_lp_Energy>  (1) 
31.117341

>  <s_epik_Chemistry_Notes>  (1) 
This compound contains an acetal/aminal-like group ( X-CH(R)-Y where X, Y are N, S, or O) that may be acid/base labile, releasing an aldehyde.

>  <s_epik_cmdline>  (1) 
J2VwaWtfcHl0aG9uJywgJy1waHQnLCAnMS4wJywgJy1waCcsICc3LjQnLCAnLXRuJywgJzgnLCAnLW1hJywgJzUwMCcsICctaW1hZScsICc8aW5maWxlLm1hZT4nLCAnLW9tYWUnLCAnPG91dGZpbGUubWFlPic=

>  <s_epik_input>  (1) 
W0NIMl0xW0NIXT1bQ0hdQyhbQ0gzXSk9W0NIXVtDQF0xMltDQEBIXShbQ0gyXTIpW0NIMl1TW0NIMl1OKFtDQEhdKFtDSDJdMylPW0NIM10pW0NIMl1bQ0BIXShbQ0BIXTM0KVtDSDJdW0NIXT1DKFtPSF0pQyg9W0NIXTQpW0NASF0oW09IXSlDI1tDSF0=

>  <s_glide_docking_method>  (1) 
confgen

>  <s_i_glide_gridfile>  (1) 
gpcr_drd2_6luq_protein_autoprepared_prepared

>  <s_lp_Force_Field>  (1) 
S-OPLS

>  <s_lp_Variant>  (1) 
DiffSBDD_20-1

>  <s_m_source_file>  (1) 
generated_generic_title2_ligand_DiffSBDD_2026-06-23_prepared.sdf

>  <GenAI_Model>  (1) 
DiffSBDD

>  <Protein>  (1) 
generic_title2

$$$$
DiffSBDD_64
     RDKit          3D

  0  0  0  0  0  0  0  0  0  0999 V3000
M  V30 BEGIN CTAB
M  V30 COUNTS 77 80 0 0 1
M  V30 BEGIN ATOM
M  V30 1 C 5.876266 5.695844 -16.748135 0
M  V30 2 C 10.697549 8.492023 -9.063723 0
M  V30 3 C 6.174148 5.992317 -19.201147 0 CFG=2
M  V30 4 C 6.444566 6.038258 -11.934464 0
M  V30 5 C 10.977804 7.235893 -5.458605 0
M  V30 6 C 7.929019 7.016891 -20.818194 0
M  V30 7 C 6.599356 7.188450 -12.941094 0 CFG=1
M  V30 8 O 12.713821 8.338979 -7.875398 0
M  V30 9 C 8.319249 4.906707 -19.490626 0
M  V30 10 C 5.285037 7.227531 -19.445365 0
M  V30 11 C 7.796520 5.556605 -11.377469 0
M  V30 12 C 11.375174 8.705603 -5.295639 0
M  V30 13 C 10.986159 9.343997 -6.624449 0
M  V30 14 C 9.061315 5.013239 -17.054256 0
M  V30 15 N 6.833778 5.948025 -17.867213 0 CFG=2 CHG=1
M  V30 16 C 5.425626 8.133255 -16.057206 0
M  V30 17 C 11.315584 8.276126 -7.669863 0 CFG=1
M  V30 18 C 7.282978 5.747348 -20.242619 0 CFG=1
M  V30 19 C 7.874212 4.886970 -18.020939 0 CFG=1
M  V30 20 C 7.502502 8.285127 -12.365711 0
M  V30 21 C 8.809108 7.738777 -11.802701 0
M  V30 22 C 10.951921 7.280883 -9.984291 0
M  V30 23 C 9.495817 5.558467 -8.681019 0
M  V30 24 C 9.519429 6.421505 -7.400343 0
M  V30 25 C 10.920724 6.943334 -6.977705 0 CFG=2
M  V30 26 S 7.251618 6.629061 -14.536822 0
M  V30 27 N 8.575421 6.681932 -10.785026 0 CFG=2 CHG=1
M  V30 28 C 9.797803 6.238673 -10.047496 0 CFG=1
M  V30 29 C 5.795319 6.717987 -15.610871 0 CFG=2
M  V30 30 H 6.175422 4.781888 -16.249206 0
M  V30 31 H 4.863511 5.590188 -17.136549 0
M  V30 32 H 9.630611 8.706477 -8.992153 0
M  V30 33 H 11.136710 9.383736 -9.513421 0
M  V30 34 H 5.521220 5.117513 -19.259182 0
M  V30 35 H 5.907316 5.206740 -12.391898 0
M  V30 36 H 5.820475 6.373743 -11.104885 0
M  V30 37 H 11.682689 6.577573 -4.950014 0
M  V30 38 H 10.007100 7.066975 -4.995406 0
M  V30 39 H 8.376017 7.610588 -20.023481 0
M  V30 40 H 8.720331 6.764109 -21.525140 0
M  V30 41 H 7.210652 7.636697 -21.355020 0
M  V30 42 H 5.604158 7.590486 -13.119556 0
M  V30 43 H 12.927099 9.162699 -8.287153 0
M  V30 44 H 9.321645 5.326117 -19.598813 0
M  V30 45 H 8.364602 3.892706 -19.889995 0
M  V30 46 H 4.869309 7.203658 -20.453135 0
M  V30 47 H 4.438674 7.258997 -18.760845 0
M  V30 48 H 5.825724 8.164476 -19.339405 0
M  V30 49 H 8.378289 5.085645 -12.170855 0
M  V30 50 H 7.606523 4.780396 -10.638062 0
M  V30 51 H 12.452098 8.790132 -5.155436 0
M  V30 52 H 10.910795 9.187254 -4.436814 0
M  V30 53 H 11.496019 10.294585 -6.783894 0
M  V30 54 H 9.913068 9.524195 -6.636669 0
M  V30 55 H 9.824718 4.270572 -17.288043 0
M  V30 56 H 9.535431 5.990280 -17.116437 0
M  V30 57 H 8.763778 4.836359 -16.022895 0
M  V30 58 H 4.477599 8.131647 -16.593422 0
M  V30 59 H 5.293986 8.789630 -15.203708 0
M  V30 60 H 6.175469 8.573254 -16.705482 0
M  V30 61 H 6.873911 5.174965 -21.077379 0
M  V30 62 H 7.403481 3.914903 -17.860315 0
M  V30 63 H 7.775413 9.013530 -13.129340 0
M  V30 64 H 6.965703 8.825107 -11.584987 0
M  V30 65 H 9.312711 8.602318 -11.375094 0
M  V30 66 H 9.441902 7.350361 -12.601114 0
M  V30 67 H 11.859137 6.790218 -9.644250 0
M  V30 68 H 11.232180 7.618016 -10.981920 0
M  V30 69 H 10.207306 4.745875 -8.539902 0
M  V30 70 H 8.526864 5.063681 -8.714586 0
M  V30 71 H 9.141686 5.778888 -6.606062 0
M  V30 72 H 8.791846 7.232159 -7.459543 0
M  V30 73 H 11.656561 6.167433 -7.199466 0
M  V30 74 H 10.175393 5.446218 -10.691599 0
M  V30 75 H 4.975424 6.369252 -14.984027 0
M  V30 76 H 7.946379 7.134107 -10.098970 0
M  V30 77 H 7.301762 6.830337 -17.718480 0
M  V30 END ATOM
M  V30 BEGIN BOND
M  V30 1 1 7 4
M  V30 2 1 10 3
M  V30 3 1 11 4
M  V30 4 1 12 5
M  V30 5 1 13 12
M  V30 6 1 15 1
M  V30 7 1 15 3
M  V30 8 1 17 2
M  V30 9 1 17 8 CFG=3
M  V30 10 1 17 13
M  V30 11 1 18 3
M  V30 12 1 18 6
M  V30 13 1 18 9
M  V30 14 1 19 9
M  V30 15 1 19 14
M  V30 16 1 19 15
M  V30 17 1 20 7
M  V30 18 1 21 20
M  V30 19 1 22 2
M  V30 20 1 24 23
M  V30 21 1 25 5
M  V30 22 1 25 17
M  V30 23 1 25 24
M  V30 24 1 26 7
M  V30 25 1 27 11
M  V30 26 1 27 21
M  V30 27 1 28 22
M  V30 28 1 28 23
M  V30 29 1 28 27
M  V30 30 1 29 1
M  V30 31 1 29 16
M  V30 32 1 29 26
M  V30 33 1 30 1
M  V30 34 1 31 1
M  V30 35 1 32 2
M  V30 36 1 33 2
M  V30 37 1 3 34 CFG=1
M  V30 38 1 35 4
M  V30 39 1 36 4
M  V30 40 1 37 5
M  V30 41 1 38 5
M  V30 42 1 39 6
M  V30 43 1 40 6
M  V30 44 1 41 6
M  V30 45 1 7 42 CFG=3
M  V30 46 1 43 8
M  V30 47 1 44 9
M  V30 48 1 45 9
M  V30 49 1 46 10
M  V30 50 1 47 10
M  V30 51 1 48 10
M  V30 52 1 49 11
M  V30 53 1 50 11
M  V30 54 1 51 12
M  V30 55 1 52 12
M  V30 56 1 53 13
M  V30 57 1 54 13
M  V30 58 1 55 14
M  V30 59 1 56 14
M  V30 60 1 57 14
M  V30 61 1 58 16
M  V30 62 1 59 16
M  V30 63 1 60 16
M  V30 64 1 18 61 CFG=3
M  V30 65 1 19 62 CFG=1
M  V30 66 1 63 20
M  V30 67 1 64 20
M  V30 68 1 65 21
M  V30 69 1 66 21
M  V30 70 1 67 22
M  V30 71 1 68 22
M  V30 72 1 69 23
M  V30 73 1 70 23
M  V30 74 1 71 24
M  V30 75 1 72 24
M  V30 76 1 25 73 CFG=1
M  V30 77 1 28 74 CFG=3
M  V30 78 1 29 75 CFG=1
M  V30 79 1 27 76 CFG=1
M  V30 80 1 15 77 CFG=1
M  V30 END BOND
M  V30 END CTAB
M  END
>  <i_epik_Tot_Q>  (1) 
2

>  <i_epik_Tot_abs_Q>  (1) 
2

>  <i_i_glide_confnum>  (1) 
30

>  <i_i_glide_lignum>  (1) 
103

>  <i_i_glide_posenum>  (1) 
85

>  <i_i_glide_rotatable_bonds>  (1) 
6

>  <i_lp_mmshare_version>  (1) 
72125

>  <i_m_source_file_index>  (1) 
65

>  <i_f3d_flags>  (1) 
0

>  <num_sample>  (1) 
100

>  <b_lp_Chiralities_Consistent>  (1) 
1

>  <r_epik_Charging_Adjusted_Penalty>  (1) 
0.010385271147369776

>  <r_epik_Ionization_Penalty>  (1) 
0.010385491156522124

>  <r_epik_Ionization_Penalty_Charging>  (1) 
0.010385271147369776

>  <r_epik_Ionization_Penalty_Neutral>  (1) 
2.2000915234807092e-07

>  <r_epik_State_Penalty>  (1) 
-0

>  <r_glide_ring_energy>  (1) 
0

>  <r_i_docking_score>  (1) 
-5.8355413289000033

>  <r_i_glide_ecoul>  (1) 
-7.9288959665821572

>  <r_i_glide_eff_state_penalty>  (1) 
-0

>  <r_i_glide_einternal>  (1) 
3.46796333132062

>  <r_i_glide_emodel>  (1) 
-43.187565846940259

>  <r_i_glide_emodel_strain>  (1) 
1.9320880426096636

>  <r_i_glide_energy>  (1) 
-35.522040037974733

>  <r_i_glide_erotb>  (1) 
0.5496323063178965

>  <r_i_glide_esite>  (1) 
-0.10000000000000001

>  <r_i_glide_evdw>  (1) 
-27.593144071392576

>  <r_i_glide_gscore>  (1) 
-5.8355413289000033

>  <r_i_glide_gscore_strain>  (1) 
0

>  <r_i_glide_hbond>  (1) 
-0.14457019158777401

>  <r_i_glide_ligand_efficiency>  (1) 
-0.20122556306551737

>  <r_i_glide_ligand_efficiency_ln>  (1) 
-1.3361909877577667

>  <r_i_glide_ligand_efficiency_sa>  (1) 
-0.61822868316429769

>  <r_i_glide_lipo>  (1) 
-2.5105632028972775

>  <r_i_glide_metal>  (1) 
-0

>  <r_i_glide_rewards>  (1) 
-1.061048642175896

>  <r_lp_Energy>  (1) 
51.013120000000001

>  <r_lp_tautomer_probability>  (1) 
1

>  <s_epik_cmdline>  (1) 
J2VwaWtfcHl0aG9uJywgJy1waHQnLCAnMS4wJywgJy1waCcsICc3LjQnLCAnLXRuJywgJzgnLCAnLW1hJywgJzUwMCcsICctaW1hZScsICc8aW5maWxlLm1hZT4nLCAnLW9tYWUnLCAnPG91dGZpbGUubWFlPic=

>  <s_epik_input>  (1) 
W0NIM11bQ0BIXTFbQ0gyXVtDQEBIXShbQ0gzXSlOKFtDQEhdMVtDSDNdKVtDSDJdW0NASF0oW0NIM10pU1tDSF0yW0NIMl1bQ0gyXU4oW0NIMl1bQ0gyXTIpW0NAQEhdKFtDSDJdW0NIMl0zKVtDSDJdW0NIMl1bQ0BASF0oW0NAQF0zNFtPSF0pW0NIMl1bQ0gyXVtDSDJdNA==

>  <s_glide_docking_method>  (1) 
confgen

>  <s_i_glide_gridfile>  (1) 
gpcr_drd2_6luq_protein_autoprepared_prepared

>  <s_lp_Force_Field>  (1) 
S-OPLS

>  <s_lp_Variant>  (1) 
DiffSBDD_64-2

>  <s_m_source_file>  (1) 
generated_generic_title2_ligand_DiffSBDD_2026-06-23_prepared.sdf

>  <GenAI_Model>  (1) 
DiffSBDD

>  <Protein>  (1) 
generic_title2

$$$$
DiffSBDD_79
     RDKit          3D

  0  0  0  0  0  0  0  0  0  0999 V3000
M  V30 BEGIN CTAB
M  V30 COUNTS 53 56 0 0 1
M  V30 BEGIN ATOM
M  V30 1 C 6.738683 1.985759 -14.834934 0
M  V30 2 C 10.225047 6.662439 -7.374676 0 CFG=2
M  V30 3 C 6.824632 -0.184980 -15.909259 0
M  V30 4 C 8.355598 5.083201 -11.084557 0
M  V30 5 C 10.497510 7.021444 -8.838479 0
M  V30 6 C 7.761974 1.147085 -14.067513 0
M  V30 7 C 7.541696 -0.280547 -14.554794 0
M  V30 8 N 9.889217 6.488890 -9.824616 0
M  V30 9 C 6.700511 3.887417 -12.415547 0
M  V30 10 C 8.831113 5.590227 -9.753064 0
M  V30 11 C 11.229455 6.811783 -4.987905 0
M  V30 12 C 9.212103 7.408714 -6.568581 0
M  V30 13 C 8.702051 4.783456 -13.484631 0
M  V30 14 C 12.401525 8.401217 -7.810056 0
M  V30 15 C 7.490525 4.072629 -13.568219 0
M  V30 16 C 9.134376 5.291669 -12.249904 0
M  V30 17 C 11.478247 8.775092 -6.634437 0 CFG=1
M  V30 18 C 7.041018 3.500400 -14.893553 0
M  V30 19 C 11.573780 8.077599 -9.058357 0
M  V30 20 C 10.685751 7.534161 -6.214743 0 CFG=2
M  V30 21 C 6.685098 1.308922 -16.208050 0
M  V30 22 C 7.133049 4.390227 -11.176929 0
M  V30 23 O 8.270417 5.205390 -8.722128 0
M  V30 24 C 12.150960 9.590148 -5.514265 0
M  V30 25 H 5.789758 1.821245 -14.322902 0
M  V30 26 H 10.328362 5.590213 -7.221286 0
M  V30 27 H 5.839316 -0.647667 -15.834511 0
M  V30 28 H 7.369197 -0.705399 -16.697851 0
M  V30 29 H 8.769419 1.458926 -14.320471 0
M  V30 30 H 7.657795 1.229103 -12.984779 0
M  V30 31 H 6.909186 -0.809771 -13.842913 0
M  V30 32 H 8.491046 -0.809777 -14.632563 0
M  V30 33 H 5.768924 3.347142 -12.480031 0
M  V30 34 H 12.175387 6.329049 -5.222479 0
M  V30 35 H 11.375397 7.486332 -4.145627 0
M  V30 36 H 10.537036 6.031617 -4.669129 0
M  V30 37 H 8.567325 6.762800 -5.985060 0
M  V30 38 H 8.714206 8.257008 -7.035496 0
M  V30 39 H 9.306745 4.930004 -14.367720 0
M  V30 40 H 13.004421 7.527654 -7.585025 0
M  V30 41 H 13.110423 9.190210 -8.038849 0
M  V30 42 H 10.071481 5.824791 -12.193244 0
M  V30 43 H 10.744595 9.470331 -7.035960 0
M  V30 44 H 6.175413 4.069509 -15.214615 0
M  V30 45 H 7.818703 3.685481 -15.635497 0
M  V30 46 H 12.236524 7.744237 -9.857820 0
M  V30 47 H 11.089547 8.984564 -9.422218 0
M  V30 48 H 5.775390 1.537238 -16.763890 0
M  V30 49 H 7.530372 1.633092 -16.816510 0
M  V30 50 H 6.529528 4.234265 -10.293386 0
M  V30 51 H 12.955913 9.066383 -5.003928 0
M  V30 52 H 12.575447 10.501566 -5.933851 0
M  V30 53 H 11.421381 9.890927 -4.761369 0
M  V30 END ATOM
M  V30 BEGIN BOND
M  V30 1 1 5 2
M  V30 2 1 6 1
M  V30 3 1 7 3
M  V30 4 1 7 6
M  V30 5 2 8 5
M  V30 6 1 10 4
M  V30 7 1 10 8
M  V30 8 1 12 2
M  V30 9 1 15 9
M  V30 10 2 15 13
M  V30 11 2 16 4
M  V30 12 1 16 13
M  V30 13 1 17 14
M  V30 14 1 18 1
M  V30 15 1 18 15
M  V30 16 1 19 5
M  V30 17 1 19 14
M  V30 18 1 20 2
M  V30 19 1 20 11 CFG=1
M  V30 20 1 20 12
M  V30 21 1 20 17
M  V30 22 1 21 1
M  V30 23 1 21 3
M  V30 24 1 22 4
M  V30 25 2 22 9
M  V30 26 2 23 10
M  V30 27 1 24 17
M  V30 28 1 25 1
M  V30 29 1 2 26 CFG=1
M  V30 30 1 27 3
M  V30 31 1 28 3
M  V30 32 1 29 6
M  V30 33 1 30 6
M  V30 34 1 31 7
M  V30 35 1 32 7
M  V30 36 1 33 9
M  V30 37 1 34 11
M  V30 38 1 35 11
M  V30 39 1 36 11
M  V30 40 1 37 12
M  V30 41 1 38 12
M  V30 42 1 39 13
M  V30 43 1 40 14
M  V30 44 1 41 14
M  V30 45 1 42 16
M  V30 46 1 17 43 CFG=3
M  V30 47 1 44 18
M  V30 48 1 45 18
M  V30 49 1 46 19
M  V30 50 1 47 19
M  V30 51 1 48 21
M  V30 52 1 49 21
M  V30 53 1 50 22
M  V30 54 1 51 24
M  V30 55 1 52 24
M  V30 56 1 53 24
M  V30 END BOND
M  V30 END CTAB
M  END
>  <i_epik_Tot_Q>  (1) 
0

>  <i_epik_Tot_abs_Q>  (1) 
0

>  <i_i_glide_confnum>  (1) 
91

>  <i_i_glide_lignum>  (1) 
138

>  <i_i_glide_posenum>  (1) 
368

>  <i_i_glide_rotatable_bonds>  (1) 
4

>  <i_lp_mmshare_version>  (1) 
72125

>  <i_m_source_file_index>  (1) 
80

>  <i_f3d_flags>  (1) 
0

>  <num_sample>  (1) 
100

>  <b_lp_Chiralities_Consistent>  (1) 
1

>  <r_epik_Charging_Adjusted_Penalty>  (1) 
0

>  <r_epik_Ionization_Penalty>  (1) 
0

>  <r_epik_Ionization_Penalty_Charging>  (1) 
0

>  <r_epik_Ionization_Penalty_Neutral>  (1) 
0

>  <r_epik_State_Penalty>  (1) 
-0

>  <r_glide_ring_energy>  (1) 
0

>  <r_i_docking_score>  (1) 
-5.831661116471559

>  <r_i_glide_ecoul>  (1) 
0.58643957253637546

>  <r_i_glide_eff_state_penalty>  (1) 
-0

>  <r_i_glide_einternal>  (1) 
3.1494185701435446

>  <r_i_glide_emodel>  (1) 
-38.759308362567012

>  <r_i_glide_emodel_strain>  (1) 
0.27918181678757037

>  <r_i_glide_energy>  (1) 
-31.478032411205294

>  <r_i_glide_erotb>  (1) 
0.71538486133248902

>  <r_i_glide_esite>  (1) 
-0.11688493270522538

>  <r_i_glide_evdw>  (1) 
-32.064471983741669

>  <r_i_glide_gscore>  (1) 
-5.831661116471559

>  <r_i_glide_gscore_strain>  (1) 
0

>  <r_i_glide_hbond>  (1) 
0

>  <r_i_glide_ligand_efficiency>  (1) 
-0.24298587985298162

>  <r_i_glide_ligand_efficiency_ln>  (1) 
-1.395784102663393

>  <r_i_glide_ligand_efficiency_sa>  (1) 
-0.70089256161746061

>  <r_i_glide_lipo>  (1) 
-2.8113751772467395

>  <r_i_glide_metal>  (1) 
-0

>  <r_i_glide_rewards>  (1) 
-2.103528204545456

>  <r_lp_Energy>  (1) 
51.233270999999995

>  <r_lp_tautomer_probability>  (1) 
1

>  <s_epik_Chemistry_Notes>  (1) 
This compound has an imine and may undergo hydrolysis.

>  <s_epik_cmdline>  (1) 
J2VwaWtfcHl0aG9uJywgJy1waHQnLCAnMS4wJywgJy1waCcsICc3LjQnLCAnLXRuJywgJzgnLCAnLW1hJywgJzUwMCcsICctaW1hZScsICc8aW5maWxlLm1hZT4nLCAnLW9tYWUnLCAnPG91dGZpbGUubWFlPic=

>  <s_epik_input>  (1) 
W0NIMl0xW0NIMl1bQ0gyXVtDSDJdW0NIXTFbQ0gyXWMoW2NIXVtjSF0yKVtjSF1bY0hdYzJDKD1PKS9OPUMoXFtDQEhdKFtDSDJdMylDMzRbQ0gzXSlbQ0gyXVtDSDJdW0NAQEhdNFtDSDNd

>  <s_glide_docking_method>  (1) 
confgen

>  <s_i_glide_gridfile>  (1) 
gpcr_drd2_6luq_protein_autoprepared_prepared

>  <s_lp_Force_Field>  (1) 
S-OPLS

>  <s_lp_Variant>  (1) 
DiffSBDD_79-2

>  <s_m_source_file>  (1) 
generated_generic_title2_ligand_DiffSBDD_2026-06-23_prepared.sdf

>  <GenAI_Model>  (1) 
DiffSBDD

>  <Protein>  (1) 
generic_title2

$$$$
DiffSBDD_72
     RDKit          3D

  0  0  0  0  0  0  0  0  0  0999 V3000
M  V30 BEGIN CTAB
M  V30 COUNTS 47 49 0 0 1
M  V30 BEGIN ATOM
M  V30 1 C 12.206293 8.197046 -3.120935 0
M  V30 2 C 12.153412 8.565068 -7.597994 0
M  V30 3 C 9.613582 8.290656 -7.068025 0
M  V30 4 C 11.375216 8.114732 -5.250809 0
M  V30 5 C 12.799649 8.790241 -1.902102 0
M  V30 6 C 11.211938 6.798266 -4.874938 0
M  V30 7 C 8.023432 4.435016 -14.547456 0
M  V30 8 C 7.685113 3.317083 -13.561862 0
M  V30 9 C 11.010087 8.741525 -6.573865 0 CFG=1
M  V30 10 N 11.952133 8.886938 -4.232500 0
M  V30 11 C 8.606605 6.301023 -11.473112 0
M  V30 12 C 9.775392 7.258102 -9.435648 0 CFG=2
M  V30 13 C 9.567612 7.006301 -7.922189 0
M  V30 14 C 8.792587 5.207245 -12.537862 0 CFG=1
M  V30 15 C 8.149553 3.856184 -12.215815 0
M  V30 16 S 11.775407 6.518669 -3.248235 0
M  V30 17 O 8.132965 5.593250 -13.735171 0
M  V30 18 O 9.015195 4.949201 -9.544408 0 CHG=-1
M  V30 19 N 9.463822 6.003023 -10.261604 0 CFG=1 CHG=1
M  V30 20 C 11.222083 7.641891 -9.801043 0
M  V30 21 C 11.802507 8.861699 -9.070262 0
M  V30 22 H 12.989995 9.190213 -7.285843 0
M  V30 23 H 12.536507 7.546045 -7.545629 0
M  V30 24 H 8.953185 8.175485 -6.207307 0
M  V30 25 H 9.158049 9.095191 -7.646779 0
M  V30 26 H 12.166537 9.590225 -1.518093 0
M  V30 27 H 12.927030 8.031372 -1.132306 0
M  V30 28 H 13.775401 9.190226 -2.151357 0
M  V30 29 H 10.795920 5.990236 -5.449084 0
M  V30 30 H 7.266461 4.556393 -15.322545 0
M  V30 31 H 8.979293 4.247194 -15.036655 0
M  V30 32 H 6.609698 3.136311 -13.540920 0
M  V30 33 H 8.175460 2.379877 -13.826969 0
M  V30 34 H 10.917479 9.814006 -6.395828 0
M  V30 35 H 7.574185 6.390777 -11.135841 0
M  V30 36 H 8.938422 7.259920 -11.871923 0
M  V30 37 H 9.085168 8.035459 -9.765440 0
M  V30 38 H 8.575413 6.580236 -7.778255 0
M  V30 39 H 10.268893 6.254678 -7.563919 0
M  V30 40 H 9.851940 5.073900 -12.763799 0
M  V30 41 H 8.856377 3.190181 -11.718941 0
M  V30 42 H 7.291397 3.989580 -11.555613 0
M  V30 43 H 11.273362 7.826656 -10.874133 0
M  V30 44 H 11.872712 6.790235 -9.611936 0
M  V30 45 H 11.150303 9.724788 -9.184929 0
M  V30 46 H 12.728258 9.132078 -9.579172 0
M  V30 47 H 10.391260 5.777021 -10.678465 0
M  V30 END ATOM
M  V30 BEGIN BOND
M  V30 1 1 5 1
M  V30 2 2 6 4
M  V30 3 1 8 7
M  V30 4 1 9 2
M  V30 5 1 9 3
M  V30 6 1 9 4
M  V30 7 2 10 1
M  V30 8 1 10 4
M  V30 9 1 13 3
M  V30 10 1 13 12
M  V30 11 1 14 11
M  V30 12 1 15 8
M  V30 13 1 15 14
M  V30 14 1 16 1
M  V30 15 1 16 6
M  V30 16 1 17 7
M  V30 17 1 17 14
M  V30 18 1 19 11
M  V30 19 1 19 12
M  V30 20 1 19 18
M  V30 21 1 20 12
M  V30 22 1 21 2
M  V30 23 1 21 20
M  V30 24 1 22 2
M  V30 25 1 23 2
M  V30 26 1 24 3
M  V30 27 1 25 3
M  V30 28 1 26 5
M  V30 29 1 27 5
M  V30 30 1 28 5
M  V30 31 1 29 6
M  V30 32 1 30 7
M  V30 33 1 31 7
M  V30 34 1 32 8
M  V30 35 1 33 8
M  V30 36 1 9 34 CFG=1
M  V30 37 1 35 11
M  V30 38 1 36 11
M  V30 39 1 12 37 CFG=3
M  V30 40 1 38 13
M  V30 41 1 39 13
M  V30 42 1 14 40 CFG=3
M  V30 43 1 41 15
M  V30 44 1 42 15
M  V30 45 1 43 20
M  V30 46 1 44 20
M  V30 47 1 45 21
M  V30 48 1 46 21
M  V30 49 1 19 47 CFG=3
M  V30 END BOND
M  V30 END CTAB
M  END
>  <i_epik_Tot_Q>  (1) 
0

>  <i_epik_Tot_abs_Q>  (1) 
2

>  <i_i_glide_confnum>  (1) 
172

>  <i_i_glide_lignum>  (1) 
118

>  <i_i_glide_posenum>  (1) 
200

>  <i_i_glide_rotatable_bonds>  (1) 
4

>  <i_lp_mmshare_version>  (1) 
72125

>  <i_m_source_file_index>  (1) 
73

>  <i_f3d_flags>  (1) 
0

>  <num_sample>  (1) 
100

>  <b_lp_Chiralities_Consistent>  (1) 
1

>  <r_epik_Charging_Adjusted_Penalty>  (1) 
0.52782075658533367

>  <r_epik_Ionization_Penalty>  (1) 
0.0061787587503483845

>  <r_epik_Ionization_Penalty_Charging>  (1) 
0.0058496280333447418

>  <r_epik_Ionization_Penalty_Neutral>  (1) 
0.00032913071700364294

>  <r_epik_State_Penalty>  (1) 
0.52197112855198891

>  <r_glide_ring_energy>  (1) 
0.39787127286498092

>  <r_i_docking_score>  (1) 
-5.830134116169627

>  <r_i_glide_ecoul>  (1) 
-0.66753667264648453

>  <r_i_glide_eff_state_penalty>  (1) 
0.52197112855198891

>  <r_i_glide_einternal>  (1) 
9.6165944004770054

>  <r_i_glide_emodel>  (1) 
-41.805107955367831

>  <r_i_glide_emodel_strain>  (1) 
0.80439912661141477

>  <r_i_glide_energy>  (1) 
-34.722580022445484

>  <r_i_glide_erotb>  (1) 
0.76903323708162985

>  <r_i_glide_esite>  (1) 
-0.060623712269212142

>  <r_i_glide_evdw>  (1) 
-34.055043349799

>  <r_i_glide_gscore>  (1) 
-6.3521052447216162

>  <r_i_glide_gscore_strain>  (1) 
0

>  <r_i_glide_hbond>  (1) 
0

>  <r_i_glide_ligand_efficiency>  (1) 
-0.27762543410331558

>  <r_i_glide_ligand_efficiency_ln>  (1) 
-1.4414888793276885

>  <r_i_glide_ligand_efficiency_sa>  (1) 
-0.76594752212594108

>  <r_i_glide_lipo>  (1) 
-3.0653263284198382

>  <r_i_glide_metal>  (1) 
-0

>  <r_i_glide_rewards>  (1) 
-2.192305772727273

>  <r_lp_Energy>  (1) 
15.897221

>  <s_epik_cmdline>  (1) 
J2VwaWtfcHl0aG9uJywgJy1waHQnLCAnMS4wJywgJy1waCcsICc3LjQnLCAnLXRuJywgJzgnLCAnLW1hJywgJzUwMCcsICctaW1hZScsICc8aW5maWxlLm1hZT4nLCAnLW9tYWUnLCAnPG91dGZpbGUubWFlPic=

>  <s_epik_input>  (1) 
W0NIM11jMW5jKFtjSF1zMSlbQ0BIXTJbQ0gyXVtDSDJdW0NIMl1bQ0BIXShbQ0gyXVtDSDJdMilOKFtPSF0pW0NIMl1bQ0BIXTNbQ0gyXVtDSDJdW0NIMl1PMw==

>  <s_glide_docking_method>  (1) 
confgen

>  <s_i_glide_gridfile>  (1) 
gpcr_drd2_6luq_protein_autoprepared_prepared

>  <s_lp_Force_Field>  (1) 
S-OPLS

>  <s_lp_Variant>  (1) 
DiffSBDD_72-2

>  <s_m_source_file>  (1) 
generated_generic_title2_ligand_DiffSBDD_2026-06-23_prepared.sdf

>  <GenAI_Model>  (1) 
DiffSBDD

>  <Protein>  (1) 
generic_title2

$$$$
DiffSBDD_10
     RDKit          3D

  0  0  0  0  0  0  0  0  0  0999 V3000
M  V30 BEGIN CTAB
M  V30 COUNTS 55 59 0 0 1
M  V30 BEGIN ATOM
M  V30 1 S 9.590706 6.944317 -11.697785 0
M  V30 2 C 10.205393 7.030305 -9.006983 0
M  V30 3 C 7.910760 4.784522 -11.718335 0 CFG=1
M  V30 4 C 11.172706 8.015752 -5.973435 0
M  V30 5 C 5.375563 5.415655 -12.168334 0
M  V30 6 C 11.583957 7.993184 -4.512580 0
M  V30 7 O 8.590246 7.712543 -12.453318 0
M  V30 8 C 5.443410 4.414102 -13.343360 0
M  V30 9 C 12.189834 6.768482 -2.480804 0
M  V30 10 C 6.613895 2.205561 -14.082307 0
M  V30 11 C 7.952106 1.611154 -13.626581 0
M  V30 12 N 9.243534 5.364482 -11.529472 0 CHG=-1
M  V30 13 C 7.169873 4.692407 -10.404297 0
M  V30 14 C 6.406900 3.269725 -13.034464 0 CFG=1
M  V30 15 O 11.010054 7.176756 -12.000657 0
M  V30 16 C 11.775422 6.769398 -3.825674 0
M  V30 17 N 9.375462 7.393988 -10.047914 0
M  V30 18 C 6.697047 5.674975 -11.455782 0 CFG=1
M  V30 19 C 11.794185 9.204824 -3.812560 0
M  V30 20 C 10.679198 9.299710 -6.591077 0
M  V30 21 C 12.405796 7.984431 -1.810832 0
M  V30 22 O 11.406405 6.940459 -9.143600 0
M  V30 23 O 8.572396 2.592909 -12.785249 0
M  V30 24 C 10.490485 6.705601 -6.444440 0
M  V30 25 C 12.192129 9.192762 -2.472135 0
M  V30 26 C 9.521012 6.749534 -7.664557 0
M  V30 27 C 12.092695 8.869057 -6.848642 0
M  V30 28 C 7.824024 3.796803 -12.874011 0 CFG=2
M  V30 29 H 4.671041 5.067690 -11.416725 0
M  V30 30 H 4.987636 6.366642 -12.533664 0
M  V30 31 H 4.450212 4.020468 -13.555038 0
M  V30 32 H 5.773898 4.929218 -14.246761 0
M  V30 33 H 12.347544 5.831420 -1.967308 0
M  V30 34 H 5.811794 1.467679 -14.113515 0
M  V30 35 H 6.712652 2.657155 -15.070432 0
M  V30 36 H 7.805112 0.695613 -13.050581 0
M  V30 37 H 8.574335 1.367830 -14.485376 0
M  V30 38 H 6.536709 3.832819 -10.202224 0
M  V30 39 H 7.634738 5.122685 -9.522467 0
M  V30 40 H 6.094883 2.769857 -12.117677 0
M  V30 41 H 11.622409 5.829427 -4.334393 0
M  V30 42 H 8.374851 7.590345 -9.849569 0
M  V30 43 H 6.822567 6.715586 -11.185638 0
M  V30 44 H 11.655176 10.149115 -4.306747 0
M  V30 45 H 9.972322 9.190843 -7.403605 0
M  V30 46 H 10.575558 10.209296 -6.013384 0
M  V30 47 H 12.733050 7.990245 -0.784935 0
M  V30 48 H 11.260000 5.950505 -6.610384 0
M  V30 49 H 9.873337 6.338500 -5.623244 0
M  V30 50 H 12.343028 10.120856 -1.952498 0
M  V30 51 H 9.043432 5.775115 -7.758413 0
M  V30 52 H 8.703777 7.449087 -7.487615 0
M  V30 53 H 12.871148 9.445019 -6.352782 0
M  V30 54 H 12.340378 8.619213 -7.868433 0
M  V30 55 H 8.132378 4.315329 -13.784223 0
M  V30 END ATOM
M  V30 BEGIN BOND
M  V30 1 1 6 4
M  V30 2 2 7 1
M  V30 3 1 8 5
M  V30 4 1 11 10
M  V30 5 1 12 1
M  V30 6 1 3 12 CFG=1
M  V30 7 1 13 3
M  V30 8 1 14 8
M  V30 9 1 14 10
M  V30 10 2 15 1
M  V30 11 2 16 6
M  V30 12 1 16 9
M  V30 13 1 17 1
M  V30 14 1 17 2
M  V30 15 1 18 3
M  V30 16 1 18 5
M  V30 17 1 18 13
M  V30 18 1 19 6
M  V30 19 1 20 4
M  V30 20 2 21 9
M  V30 21 2 22 2
M  V30 22 1 23 11
M  V30 23 1 24 4
M  V30 24 2 25 19
M  V30 25 1 25 21
M  V30 26 1 26 2
M  V30 27 1 26 24
M  V30 28 1 27 4
M  V30 29 1 27 20
M  V30 30 1 28 3
M  V30 31 1 28 14
M  V30 32 1 28 23
M  V30 33 1 29 5
M  V30 34 1 30 5
M  V30 35 1 31 8
M  V30 36 1 32 8
M  V30 37 1 33 9
M  V30 38 1 34 10
M  V30 39 1 35 10
M  V30 40 1 36 11
M  V30 41 1 37 11
M  V30 42 1 38 13
M  V30 43 1 39 13
M  V30 44 1 14 40 CFG=1
M  V30 45 1 41 16
M  V30 46 1 42 17
M  V30 47 1 18 43 CFG=1
M  V30 48 1 44 19
M  V30 49 1 45 20
M  V30 50 1 46 20
M  V30 51 1 47 21
M  V30 52 1 48 24
M  V30 53 1 49 24
M  V30 54 1 50 25
M  V30 55 1 51 26
M  V30 56 1 52 26
M  V30 57 1 53 27
M  V30 58 1 54 27
M  V30 59 1 28 55 CFG=3
M  V30 END BOND
M  V30 END CTAB
M  END
>  <i_epik_Tot_Q>  (1) 
-1

>  <i_epik_Tot_abs_Q>  (1) 
1

>  <i_i_glide_confnum>  (1) 
14

>  <i_i_glide_lignum>  (1) 
19

>  <i_i_glide_posenum>  (1) 
294

>  <i_i_glide_rotatable_bonds>  (1) 
8

>  <i_lp_mmshare_version>  (1) 
72125

>  <i_m_source_file_index>  (1) 
11

>  <i_f3d_flags>  (1) 
0

>  <num_sample>  (1) 
100

>  <b_lp_Chiralities_Consistent>  (1) 
1

>  <r_epik_Charging_Adjusted_Penalty>  (1) 
0.69645471960127314

>  <r_epik_Ionization_Penalty>  (1) 
0.13608129319335216

>  <r_epik_Ionization_Penalty_Charging>  (1) 
0.023519382127027082

>  <r_epik_Ionization_Penalty_Neutral>  (1) 
0.11256191106632508

>  <r_epik_State_Penalty>  (1) 
0.67293533747424605

>  <r_glide_ring_energy>  (1) 
0

>  <r_i_docking_score>  (1) 
-5.8279567797424709

>  <r_i_glide_ecoul>  (1) 
-8.2434014640988593

>  <r_i_glide_eff_state_penalty>  (1) 
0.67293533747424605

>  <r_i_glide_einternal>  (1) 
12.065767404173124

>  <r_i_glide_emodel>  (1) 
-39.803622000996199

>  <r_i_glide_emodel_strain>  (1) 
7.1386137767079703

>  <r_i_glide_energy>  (1) 
-39.363827142142377

>  <r_i_glide_erotb>  (1) 
0.84406116630868921

>  <r_i_glide_esite>  (1) 
-0.23170030295671681

>  <r_i_glide_evdw>  (1) 
-31.120425678043517

>  <r_i_glide_gscore>  (1) 
-6.5008921172167167

>  <r_i_glide_gscore_strain>  (1) 
0.78465344417699256

>  <r_i_glide_hbond>  (1) 
-0.15753314472703964

>  <r_i_glide_ligand_efficiency>  (1) 
-0.20814131356223112

>  <r_i_glide_ligand_efficiency_ln>  (1) 
-1.3452635410110809

>  <r_i_glide_ligand_efficiency_sa>  (1) 
-0.63203961735478531

>  <r_i_glide_lipo>  (1) 
-3.4758254860917499

>  <r_i_glide_metal>  (1) 
-0

>  <r_i_glide_rewards>  (1) 
-1.4720162904098875

>  <r_lp_Energy>  (1) 
21.120514999999997

>  <s_epik_cmdline>  (1) 
J2VwaWtfcHl0aG9uJywgJy1waHQnLCAnMS4wJywgJy1waCcsICc3LjQnLCAnLXRuJywgJzgnLCAnLW1hJywgJzUwMCcsICctaW1hZScsICc8aW5maWxlLm1hZT4nLCAnLW9tYWUnLCAnPG91dGZpbGUubWFlPic=

>  <s_epik_input>  (1) 
W0NIMl0xW0NIMl1PW0NASF0yW0NASF0xW0NIMl1bQ0gyXVtDQEBIXShbQ0gyXTMpW0NAXTIzW05IXVMoPU8pKD1PKVtOSF1DKD1PKVtDSDJdW0NIMl1DNChbQ0gyXVtDSDJdNCljNVtjSF1bY0hdW2NIXVtjSF1bY0hdNQ==

>  <s_glide_docking_method>  (1) 
confgen

>  <s_i_glide_gridfile>  (1) 
gpcr_drd2_6luq_protein_autoprepared_prepared

>  <s_lp_Force_Field>  (1) 
S-OPLS

>  <s_lp_Variant>  (1) 
DiffSBDD_10-2

>  <s_m_source_file>  (1) 
generated_generic_title2_ligand_DiffSBDD_2026-06-23_prepared.sdf

>  <GenAI_Model>  (1) 
DiffSBDD

>  <Protein>  (1) 
generic_title2

$$$$
DiffSBDD_9
     RDKit          3D

  0  0  0  0  0  0  0  0  0  0999 V3000
M  V30 BEGIN CTAB
M  V30 COUNTS 66 71 0 0 1
M  V30 BEGIN ATOM
M  V30 1 C 12.175488 6.390107 -2.793465 0
M  V30 2 O 12.175406 9.990227 -2.385040 0
M  V30 3 C 11.678881 6.272904 -4.104386 0
M  V30 4 C 6.827211 3.692909 -14.546409 0 CFG=2
M  V30 5 C 6.917433 1.229429 -15.289561 0
M  V30 6 C 8.527983 5.511670 -9.709074 0
M  V30 7 C 11.786914 7.775556 -7.274818 0 CFG=2
M  V30 8 C 11.395988 9.176168 -7.612513 0
M  V30 9 C 8.066551 0.410099 -13.303703 0
M  V30 10 O 7.625636 7.059442 -12.103651 0
M  V30 11 C 12.360408 7.646361 -2.227941 0
M  V30 12 C 7.339995 4.682387 -13.527931 0
M  V30 13 C 8.977514 5.198383 -8.257642 0
M  V30 14 O 7.448734 4.834476 -10.114423 0
M  V30 15 C 7.623868 2.382697 -14.579030 0 CFG=2
M  V30 16 N 7.907229 1.868007 -13.224000 0 CHG=1
M  V30 17 N 10.138809 6.240511 -8.446154 0 CHG=1
M  V30 18 C 9.000757 6.918191 -11.795241 0
M  V30 19 C 7.561190 -0.010323 -14.686477 0
M  V30 20 C 10.175441 6.827459 -9.594080 0
M  V30 21 C 11.580932 8.683324 -4.295502 0
M  V30 22 C 11.913524 10.106038 -6.476703 0
M  V30 23 O 7.480838 7.098139 -13.596505 0
M  V30 24 C 9.207103 6.400356 -10.381002 0
M  V30 25 C 6.590097 5.784358 -15.494011 0
M  V30 26 C 11.233506 9.938942 -5.100535 0
M  V30 27 C 11.152394 6.399976 -7.380530 0 CFG=2
M  V30 28 C 10.812633 7.286772 -6.225722 0 CFG=1
M  V30 29 C 6.700186 5.978247 -13.975830 0 CFG=1
M  V30 30 C 11.375408 7.410033 -4.859288 0
M  V30 31 O 6.975465 4.432994 -15.746851 0
M  V30 32 C 12.055562 8.790262 -2.964389 0
M  V30 33 H 12.403707 5.507985 -2.221046 0
M  V30 34 H 12.872039 10.092222 -1.743591 0
M  V30 35 H 11.524384 5.302193 -4.528569 0
M  V30 36 H 5.775455 3.514099 -14.344280 0
M  V30 37 H 5.853488 1.192848 -15.051960 0
M  V30 38 H 7.018762 1.276718 -16.374236 0
M  V30 39 H 12.857719 7.683717 -7.185046 0
M  V30 40 H 10.312908 9.190234 -7.736399 0
M  V30 41 H 11.839639 9.454789 -8.568251 0
M  V30 42 H 7.488577 -0.035010 -12.493096 0
M  V30 43 H 9.115652 0.138101 -13.181389 0
M  V30 44 H 12.722967 7.735285 -1.214879 0
M  V30 45 H 8.425548 4.730911 -13.601809 0
M  V30 46 H 7.057964 4.407159 -12.516317 0
M  V30 47 H 8.292253 5.545295 -7.482361 0
M  V30 48 H 9.375510 4.197027 -8.110031 0
M  V30 49 H 8.574464 2.560750 -15.075744 0
M  V30 50 H 8.726840 2.297146 -12.816643 0
M  V30 51 H 9.477294 7.891289 -11.926985 0
M  V30 52 H 9.499138 6.238061 -12.482307 0
M  V30 53 H 6.828538 -0.809770 -14.616519 0
M  V30 54 H 8.391403 -0.359442 -15.303220 0
M  V30 55 H 10.931339 7.564955 -9.831092 0
M  V30 56 H 11.775451 11.140984 -6.785188 0
M  V30 57 H 12.991983 9.989971 -6.357526 0
M  V30 58 H 5.568449 5.953808 -15.835826 0
M  V30 59 H 7.249428 6.451174 -16.046393 0
M  V30 60 H 10.175412 9.914400 -5.264884 0
M  V30 61 H 11.375401 10.833044 -4.510898 0
M  V30 62 H 11.689932 5.475153 -7.185017 0
M  V30 63 H 9.785202 7.650790 -6.212774 0
M  V30 64 H 5.700936 6.068955 -13.545917 0
M  V30 65 H 7.107227 2.055033 -12.636290 0
M  V30 66 H 7.114608 5.289951 -10.873764 0
M  V30 END ATOM
M  V30 BEGIN BOND
M  V30 1 1 3 1
M  V30 2 1 8 7
M  V30 3 2 11 1
M  V30 4 1 12 4
M  V30 5 1 13 6
M  V30 6 1 14 6
M  V30 7 1 15 4
M  V30 8 1 15 5
M  V30 9 1 16 9
M  V30 10 1 16 15
M  V30 11 1 17 13
M  V30 12 1 18 10
M  V30 13 1 19 5
M  V30 14 1 19 9
M  V30 15 2 20 17
M  V30 16 1 22 8
M  V30 17 1 23 10
M  V30 18 2 24 6
M  V30 19 1 24 18
M  V30 20 1 24 20
M  V30 21 1 26 21
M  V30 22 1 26 22
M  V30 23 1 27 7
M  V30 24 1 27 17
M  V30 25 1 28 7
M  V30 26 1 28 27
M  V30 27 1 29 12
M  V30 28 1 29 23
M  V30 29 1 29 25
M  V30 30 2 30 3
M  V30 31 1 30 21
M  V30 32 1 30 28
M  V30 33 1 31 4
M  V30 34 1 31 25
M  V30 35 1 32 2
M  V30 36 1 32 11
M  V30 37 2 32 21
M  V30 38 1 33 1
M  V30 39 1 34 2
M  V30 40 1 35 3
M  V30 41 1 4 36 CFG=1
M  V30 42 1 37 5
M  V30 43 1 38 5
M  V30 44 1 7 39 CFG=1
M  V30 45 1 40 8
M  V30 46 1 41 8
M  V30 47 1 42 9
M  V30 48 1 43 9
M  V30 49 1 44 11
M  V30 50 1 45 12
M  V30 51 1 46 12
M  V30 52 1 47 13
M  V30 53 1 48 13
M  V30 54 1 15 49 CFG=3
M  V30 55 1 50 16
M  V30 56 1 51 18
M  V30 57 1 52 18
M  V30 58 1 53 19
M  V30 59 1 54 19
M  V30 60 1 55 20
M  V30 61 1 56 22
M  V30 62 1 57 22
M  V30 63 1 58 25
M  V30 64 1 59 25
M  V30 65 1 60 26
M  V30 66 1 61 26
M  V30 67 1 27 62 CFG=1
M  V30 68 1 28 63 CFG=1
M  V30 69 1 29 64 CFG=1
M  V30 70 1 65 16
M  V30 71 1 66 14
M  V30 END BOND
M  V30 END CTAB
M  END
>  <i_epik_Tot_Q>  (1) 
2

>  <i_epik_Tot_abs_Q>  (1) 
2

>  <i_i_glide_confnum>  (1) 
208

>  <i_i_glide_lignum>  (1) 
17

>  <i_i_glide_posenum>  (1) 
169

>  <i_i_glide_rotatable_bonds>  (1) 
8

>  <i_lp_mmshare_version>  (1) 
72125

>  <i_m_source_file_index>  (1) 
10

>  <i_f3d_flags>  (1) 
0

>  <num_sample>  (1) 
100

>  <b_lp_Chiralities_Consistent>  (1) 
1

>  <r_epik_Charging_Adjusted_Penalty>  (1) 
1.3157260146662635

>  <r_epik_Ionization_Penalty>  (1) 
1.3160658386974122

>  <r_epik_Ionization_Penalty_Charging>  (1) 
0.0006406180093694357

>  <r_epik_Ionization_Penalty_Neutral>  (1) 
1.3154252206880428

>  <r_epik_State_Penalty>  (1) 
1.3150853966568941

>  <r_glide_ring_energy>  (1) 
0.028054261374207707

>  <r_i_docking_score>  (1) 
-5.8226316456079399

>  <r_i_glide_ecoul>  (1) 
-8.0970805676954622

>  <r_i_glide_eff_state_penalty>  (1) 
1.3150853966568941

>  <r_i_glide_einternal>  (1) 
3.3042093621376751

>  <r_i_glide_emodel>  (1) 
-44.936861692025552

>  <r_i_glide_emodel_strain>  (1) 
1.1562704863270881

>  <r_i_glide_energy>  (1) 
-32.127511003714439

>  <r_i_glide_erotb>  (1) 
0.61220542290859559

>  <r_i_glide_esite>  (1) 
-0.16538002991480197

>  <r_i_glide_evdw>  (1) 
-24.030430436018978

>  <r_i_glide_gscore>  (1) 
-7.1377170422648337

>  <r_i_glide_gscore_strain>  (1) 
0

>  <r_i_glide_hbond>  (1) 
-0.25425794154492415

>  <r_i_glide_ligand_efficiency>  (1) 
-0.18195723892524812

>  <r_i_glide_ligand_efficiency_ln>  (1) 
-1.3038459443957551

>  <r_i_glide_ligand_efficiency_sa>  (1) 
-0.57767822496633581

>  <r_i_glide_lipo>  (1) 
-3.7672488617920563

>  <r_i_glide_metal>  (1) 
-0

>  <r_i_glide_rewards>  (1) 
-1.1469520249663792

>  <r_lp_Energy>  (1) 
41.799700000000001

>  <r_lp_tautomer_probability>  (1) 
0.99929914238884965

>  <s_epik_Chemistry_Notes>  (1) 
This compound has an imine and may undergo hydrolysis.

>  <s_epik_cmdline>  (1) 
J2VwaWtfcHl0aG9uJywgJy1waHQnLCAnMS4wJywgJy1waCcsICc3LjQnLCAnLXRuJywgJzgnLCAnLW1hJywgJzUwMCcsICctaW1hZScsICc8aW5maWxlLm1hZT4nLCAnLW9tYWUnLCAnPG91dGZpbGUubWFlPic=

>  <s_epik_input>  (1) 
W2NIXTFbY0hdW2NIXWMoW09IXSljKFtDSDJdW0NIMl1bQ0gyXTIpYzFbQ0BASF0oW0NASF0yMylbQ0hdM24oW2NIXWM0W09IXSlbY0hdYzRbQ0gyXU9PW0NAQEhdKFtDSDJdTzUpW0NIMl1bQ0BASF01W0NAQEhdNltDSDJdW0NIMl1bQ0gyXVtOSF02

>  <s_glide_docking_method>  (1) 
confgen

>  <s_i_glide_gridfile>  (1) 
gpcr_drd2_6luq_protein_autoprepared_prepared

>  <s_lp_Force_Field>  (1) 
S-OPLS

>  <s_lp_Variant>  (1) 
DiffSBDD_9-2

>  <s_m_source_file>  (1) 
generated_generic_title2_ligand_DiffSBDD_2026-06-23_prepared.sdf

>  <GenAI_Model>  (1) 
DiffSBDD

>  <Protein>  (1) 
generic_title2

$$$$
DiffSBDD_14
     RDKit          3D

  0  0  0  0  0  0  0  0  0  0999 V3000
M  V30 BEGIN CTAB
M  V30 COUNTS 47 48 0 0 1
M  V30 BEGIN ATOM
M  V30 1 N 9.509794 6.388504 -10.426901 0
M  V30 2 C 7.960474 2.779528 -13.123772 0
M  V30 3 N 8.973610 3.555508 -12.381717 0 CHG=1
M  V30 4 C 10.975785 9.220583 -5.945248 0
M  V30 5 C 9.126242 5.926132 -11.676469 0
M  V30 6 C 6.585419 3.311767 -12.714961 0
M  V30 7 C 10.695152 8.103716 -9.121687 0
M  V30 8 C 5.848689 5.087531 -11.077399 0
M  V30 9 C 11.638638 9.078955 -4.710480 0
M  V30 10 C 10.458757 8.087304 -6.603627 0
M  V30 11 C 11.790576 7.793387 -4.129495 0
M  V30 12 C 11.280766 6.662751 -4.803036 0
M  V30 13 C 10.615557 6.810733 -6.033242 0
M  V30 14 C 10.044825 7.547223 -10.373927 0
M  V30 15 O 9.444509 6.388141 -12.776010 0
M  V30 16 C 6.646332 5.721885 -13.372875 0
M  V30 17 C 9.735373 8.238155 -7.927274 0
M  V30 18 N 12.561191 6.450517 -2.158993 0
M  V30 19 N 12.450095 7.633519 -2.891711 0
M  V30 20 C 8.293124 4.628422 -11.630073 0 CFG=1
M  V30 21 C 6.840220 4.732915 -12.195891 0
M  V30 22 O 12.525954 8.795290 -2.116364 0
M  V30 23 H 8.064267 1.712122 -12.920801 0
M  V30 24 H 8.123122 2.942127 -14.189282 0
M  V30 25 H 9.632603 3.974660 -13.025741 0
M  V30 26 H 10.863427 10.199867 -6.386461 0
M  V30 27 H 6.174600 2.684703 -11.923629 0
M  V30 28 H 5.867333 3.276313 -13.536653 0
M  V30 29 H 11.162768 9.066097 -9.334595 0
M  V30 30 H 11.506298 7.421105 -8.864821 0
M  V30 31 H 5.798320 4.306414 -10.319958 0
M  V30 32 H 6.148654 5.996853 -10.564096 0
M  V30 33 H 4.843619 5.241181 -11.461942 0
M  V30 34 H 12.029057 9.952001 -4.211851 0
M  V30 35 H 11.394263 5.679195 -4.373047 0
M  V30 36 H 10.222086 5.942266 -6.540105 0
M  V30 37 H 10.072497 8.217636 -11.238813 0
M  V30 38 H 7.332059 5.516214 -14.194865 0
M  V30 39 H 5.636640 5.657453 -13.781115 0
M  V30 40 H 6.791266 6.758404 -13.062213 0
M  V30 41 H 8.975347 7.457651 -7.960746 0
M  V30 42 H 9.191662 9.183380 -7.960032 0
M  V30 43 H 12.566816 6.678163 -1.167957 0
M  V30 44 H 11.744196 5.869280 -2.338200 0
M  V30 45 H 8.244225 4.275201 -10.598377 0
M  V30 46 H 13.407041 9.124557 -2.215477 0
M  V30 47 H 9.458331 2.948664 -11.732268 0
M  V30 END ATOM
M  V30 BEGIN BOND
M  V30 1 1 3 2
M  V30 2 1 5 1
M  V30 3 1 6 2
M  V30 4 2 9 4
M  V30 5 1 10 4
M  V30 6 1 11 9
M  V30 7 2 12 11
M  V30 8 2 13 10
M  V30 9 1 13 12
M  V30 10 2 14 1
M  V30 11 1 14 7
M  V30 12 2 15 5
M  V30 13 1 17 7
M  V30 14 1 17 10
M  V30 15 1 19 11
M  V30 16 1 19 18
M  V30 17 1 20 3
M  V30 18 1 20 5
M  V30 19 1 21 6
M  V30 20 1 21 8
M  V30 21 1 21 16
M  V30 22 1 21 20
M  V30 23 1 22 19
M  V30 24 1 23 2
M  V30 25 1 24 2
M  V30 26 1 25 3
M  V30 27 1 26 4
M  V30 28 1 27 6
M  V30 29 1 28 6
M  V30 30 1 29 7
M  V30 31 1 30 7
M  V30 32 1 31 8
M  V30 33 1 32 8
M  V30 34 1 33 8
M  V30 35 1 34 9
M  V30 36 1 35 12
M  V30 37 1 36 13
M  V30 38 1 37 14
M  V30 39 1 38 16
M  V30 40 1 39 16
M  V30 41 1 40 16
M  V30 42 1 41 17
M  V30 43 1 42 17
M  V30 44 1 43 18
M  V30 45 1 44 18
M  V30 46 1 20 45 CFG=1
M  V30 47 1 46 22
M  V30 48 1 47 3
M  V30 END BOND
M  V30 END CTAB
M  END
>  <i_epik_Tot_Q>  (1) 
1

>  <i_epik_Tot_abs_Q>  (1) 
1

>  <i_i_glide_confnum>  (1) 
405

>  <i_i_glide_lignum>  (1) 
28

>  <i_i_glide_posenum>  (1) 
150

>  <i_i_glide_rotatable_bonds>  (1) 
7

>  <i_lp_mmshare_version>  (1) 
72125

>  <i_m_source_file_index>  (1) 
15

>  <i_f3d_flags>  (1) 
0

>  <num_sample>  (1) 
100

>  <b_lp_Chiralities_Consistent>  (1) 
1

>  <r_epik_Charging_Adjusted_Penalty>  (1) 
1.3617227199011863

>  <r_epik_Ionization_Penalty>  (1) 
0.68407859148239814

>  <r_epik_Ionization_Penalty_Charging>  (1) 
0.68086135995059327

>  <r_epik_Ionization_Penalty_Neutral>  (1) 
0.0032172315318048095

>  <r_epik_State_Penalty>  (1) 
0.68086135995059305

>  <r_glide_ring_energy>  (1) 
0.54940987635456895

>  <r_i_docking_score>  (1) 
-5.8162441646831509

>  <r_i_glide_ecoul>  (1) 
-5.456196654546142

>  <r_i_glide_eff_state_penalty>  (1) 
0.68086135995059305

>  <r_i_glide_einternal>  (1) 
1.5328051422012798

>  <r_i_glide_emodel>  (1) 
-63.727644459302311

>  <r_i_glide_emodel_strain>  (1) 
0

>  <r_i_glide_energy>  (1) 
-43.608587945444228

>  <r_i_glide_erotb>  (1) 
1.1872890279772172

>  <r_i_glide_esite>  (1) 
-0.074361782544753591

>  <r_i_glide_evdw>  (1) 
-38.152391290898088

>  <r_i_glide_gscore>  (1) 
-6.4971055246337439

>  <r_i_glide_gscore_strain>  (1) 
0

>  <r_i_glide_hbond>  (1) 
-0.060151516386456196

>  <r_i_glide_ligand_efficiency>  (1) 
-0.26437473475832501

>  <r_i_glide_ligand_efficiency_ln>  (1) 
-1.4217022265091934

>  <r_i_glide_ligand_efficiency_sa>  (1) 
-0.74078840482441266

>  <r_i_glide_lipo>  (1) 
-2.1703621099371992

>  <r_i_glide_metal>  (1) 
-0

>  <r_i_glide_rewards>  (1) 
-2.6534700810157266

>  <r_lp_Energy>  (1) 
27.896162

>  <s_epik_Chemistry_Notes>  (1) 
This compound has an imine and may undergo hydrolysis. This compound has a N-S or N-O group and may undergo hydrolysis at high or low pH.

>  <s_epik_cmdline>  (1) 
J2VwaWtfcHl0aG9uJywgJy1waHQnLCAnMS4wJywgJy1waCcsICc3LjQnLCAnLXRuJywgJzgnLCAnLW1hJywgJzUwMCcsICctaW1hZScsICc8aW5maWxlLm1hZT4nLCAnLW9tYWUnLCAnPG91dGZpbGUubWFlPic=

>  <s_epik_input>  (1) 
W0NIM11DMShbQ0gzXSlbQ0gyXVtDSDJdW05IXVtDQEhdMUMoPU8pL049W0NIXS9bQ0gyXVtDSDJdYzJbY0hdW2NIXWMoW2NIXVtjSF0yKU4oW05IMl0pW09IXQ==

>  <s_glide_docking_method>  (1) 
confgen

>  <s_i_glide_gridfile>  (1) 
gpcr_drd2_6luq_protein_autoprepared_prepared

>  <s_lp_Force_Field>  (1) 
S-OPLS

>  <s_lp_Variant>  (1) 
DiffSBDD_14-3

>  <s_m_source_file>  (1) 
generated_generic_title2_ligand_DiffSBDD_2026-06-23_prepared.sdf

>  <GenAI_Model>  (1) 
DiffSBDD

>  <Protein>  (1) 
generic_title2

$$$$
DiffSBDD_8
     RDKit          3D

  0  0  0  0  0  0  0  0  0  0999 V3000
M  V30 BEGIN CTAB
M  V30 COUNTS 61 63 0 0 1
M  V30 BEGIN ATOM
M  V30 1 C 9.309255 5.787843 -9.168850 0
M  V30 2 O 10.577985 9.153597 -6.095791 0
M  V30 3 C 7.060787 2.068167 -13.227913 0
M  V30 4 N 12.268887 8.775279 -7.504311 0
M  V30 5 C 6.987054 6.351342 -15.028606 0 CFG=2
M  V30 6 C 8.275038 4.608531 -13.120237 0
M  V30 7 N 10.041250 6.403955 -5.999029 0
M  V30 8 C 6.543911 6.355917 -18.728851 0
M  V30 9 C 7.323262 4.485480 -17.215191 0
M  V30 10 O 4.975233 6.878696 -15.973169 0
M  V30 11 C 6.352457 3.197209 -13.643221 0
M  V30 12 C 5.397395 7.265210 -19.201292 0
M  V30 13 O 6.259600 5.529868 -14.154954 0
M  V30 14 S 10.175466 6.073633 -11.694274 0
M  V30 15 C 7.258585 7.581077 -14.191525 0
M  V30 16 C 8.950799 5.988437 -13.032466 0 CFG=2
M  V30 17 N 9.240492 6.634437 -10.358052 0 CFG=2 CHG=1
M  V30 18 F 6.475713 0.846843 -13.267863 0
M  V30 19 C 4.702359 8.265100 -16.075087 0
M  V30 20 C 9.887996 7.723147 -9.637021 0
M  V30 21 C 8.007075 7.206910 -12.917714 0
M  V30 22 C 9.551553 7.034003 -8.316890 0 CFG=2
M  V30 23 C 6.311669 5.639230 -17.378763 0 CFG=1
M  V30 24 N 6.337311 6.638379 -16.295564 0
M  V30 25 C 11.147498 8.405927 -6.888272 0
M  V30 26 C 8.375355 2.197460 -12.785028 0
M  V30 27 C 8.976035 3.460826 -12.705086 0
M  V30 28 C 6.954768 4.460974 -13.640067 0
M  V30 29 C 10.604695 7.004310 -7.192554 0 CFG=1
M  V30 30 H 8.368969 5.275263 -8.966419 0
M  V30 31 H 10.153901 5.099355 -9.167231 0
M  V30 32 H 12.657486 9.685481 -7.318977 0
M  V30 33 H 12.737059 8.141045 -8.135465 0
M  V30 34 H 7.939907 5.901990 -15.292854 0
M  V30 35 H 10.700965 6.374248 -5.235905 0
M  V30 36 H 9.233195 6.916214 -5.670549 0
M  V30 37 H 7.474684 6.923982 -18.694028 0
M  V30 38 H 6.682404 5.597518 -19.500661 0
M  V30 39 H 7.255134 3.785124 -18.046942 0
M  V30 40 H 8.350556 4.847615 -17.176666 0
M  V30 41 H 7.126389 3.908467 -16.313058 0
M  V30 42 H 5.357426 3.093705 -13.985019 0
M  V30 43 H 5.518893 7.522529 -20.255464 0
M  V30 44 H 4.428654 6.778819 -19.084868 0
M  V30 45 H 5.370595 8.203040 -18.652062 0
M  V30 46 H 7.775248 8.323813 -14.782783 0
M  V30 47 H 6.292918 7.990029 -13.922345 0
M  V30 48 H 9.567225 5.990186 -13.927627 0
M  V30 49 H 4.367187 8.655954 -15.120827 0
M  V30 50 H 5.545130 8.874650 -16.403170 0
M  V30 51 H 3.876653 8.390035 -16.772357 0
M  V30 52 H 10.960624 7.791568 -9.831469 0
M  V30 53 H 9.397043 8.689142 -9.762845 0
M  V30 54 H 8.565203 8.093262 -12.611442 0
M  V30 55 H 7.275723 7.018455 -12.132391 0
M  V30 56 H 8.585664 7.406868 -7.961627 0
M  V30 57 H 5.321236 5.190227 -17.429818 0
M  V30 58 H 8.923256 1.325895 -12.484297 0
M  V30 59 H 9.989998 3.540859 -12.344862 0
M  V30 60 H 11.441167 6.380041 -7.509710 0
M  V30 61 H 8.274040 6.899676 -10.529368 0
M  V30 END ATOM
M  V30 BEGIN BOND
M  V30 1 2 11 3
M  V30 2 1 12 8
M  V30 3 1 13 5
M  V30 4 1 15 5
M  V30 5 1 16 6
M  V30 6 1 16 14
M  V30 7 1 17 1
M  V30 8 1 17 14
M  V30 9 1 18 3
M  V30 10 1 19 10
M  V30 11 1 20 17
M  V30 12 1 21 15
M  V30 13 1 21 16
M  V30 14 1 22 1
M  V30 15 1 22 20
M  V30 16 1 23 8
M  V30 17 1 23 9
M  V30 18 1 24 5
M  V30 19 1 24 10
M  V30 20 1 24 23
M  V30 21 2 25 2
M  V30 22 1 25 4
M  V30 23 1 26 3
M  V30 24 1 27 6
M  V30 25 2 27 26
M  V30 26 2 28 6
M  V30 27 1 28 11
M  V30 28 1 28 13
M  V30 29 1 29 7
M  V30 30 1 29 22
M  V30 31 1 29 25
M  V30 32 1 30 1
M  V30 33 1 31 1
M  V30 34 1 32 4
M  V30 35 1 33 4
M  V30 36 1 5 34 CFG=3
M  V30 37 1 35 7
M  V30 38 1 36 7
M  V30 39 1 37 8
M  V30 40 1 38 8
M  V30 41 1 39 9
M  V30 42 1 40 9
M  V30 43 1 41 9
M  V30 44 1 42 11
M  V30 45 1 43 12
M  V30 46 1 44 12
M  V30 47 1 45 12
M  V30 48 1 46 15
M  V30 49 1 47 15
M  V30 50 1 16 48 CFG=3
M  V30 51 1 49 19
M  V30 52 1 50 19
M  V30 53 1 51 19
M  V30 54 1 52 20
M  V30 55 1 53 20
M  V30 56 1 54 21
M  V30 57 1 55 21
M  V30 58 1 22 56 CFG=1
M  V30 59 1 23 57 CFG=3
M  V30 60 1 58 26
M  V30 61 1 59 27
M  V30 62 1 29 60 CFG=3
M  V30 63 1 17 61 CFG=3
M  V30 END BOND
M  V30 END CTAB
M  END
>  <i_epik_Tot_Q>  (1) 
1

>  <i_epik_Tot_abs_Q>  (1) 
1

>  <i_i_glide_confnum>  (1) 
315

>  <i_i_glide_lignum>  (1) 
12

>  <i_i_glide_posenum>  (1) 
18

>  <i_i_glide_rotatable_bonds>  (1) 
8

>  <i_lp_mmshare_version>  (1) 
72125

>  <i_m_source_file_index>  (1) 
9

>  <i_f3d_flags>  (1) 
0

>  <num_sample>  (1) 
100

>  <b_lp_Chiralities_Consistent>  (1) 
1

>  <r_epik_Charging_Adjusted_Penalty>  (1) 
0.26758124344448359

>  <r_epik_Ionization_Penalty>  (1) 
0.27573061112751834

>  <r_epik_Ionization_Penalty_Charging>  (1) 
0.017350130917063531

>  <r_epik_Ionization_Penalty_Neutral>  (1) 
0.25838048021045479

>  <r_epik_State_Penalty>  (1) 
0.25023111252742003

>  <r_glide_ring_energy>  (1) 
0

>  <r_i_docking_score>  (1) 
-5.8102417626725682

>  <r_i_glide_ecoul>  (1) 
-6.5088553780416287

>  <r_i_glide_eff_state_penalty>  (1) 
0.25023111252742003

>  <r_i_glide_einternal>  (1) 
4.6339613233123789

>  <r_i_glide_emodel>  (1) 
-44.295333024654646

>  <r_i_glide_emodel_strain>  (1) 
1.3014377713360616

>  <r_i_glide_energy>  (1) 
-30.68848452198548

>  <r_i_glide_erotb>  (1) 
0.54307168116637361

>  <r_i_glide_esite>  (1) 
-0.10000000000000001

>  <r_i_glide_evdw>  (1) 
-24.179629143943849

>  <r_i_glide_gscore>  (1) 
-6.0604728751999879

>  <r_i_glide_gscore_strain>  (1) 
0

>  <r_i_glide_hbond>  (1) 
-0.12982910274585457

>  <r_i_glide_ligand_efficiency>  (1) 
-0.20035316423008856

>  <r_i_glide_ligand_efficiency_ln>  (1) 
-1.3303980286333299

>  <r_i_glide_ligand_efficiency_sa>  (1) 
-0.61554839754350099

>  <r_i_glide_lipo>  (1) 
-1.8838399849688725

>  <r_i_glide_metal>  (1) 
-0

>  <r_i_glide_rewards>  (1) 
-2.3045657047481978

>  <r_lp_Energy>  (1) 
41.451684999999998

>  <r_lp_tautomer_probability>  (1) 
1

>  <s_epik_Chemistry_Notes>  (1) 
This compound contains an acetal/aminal-like group ( X-CH(R)-Y where X, Y are N, S, or O) that may be acid/base labile, releasing an aldehyde. This compound has a N-S or N-O group and may undergo hydrolysis at high or low pH.

>  <s_epik_cmdline>  (1) 
J2VwaWtfcHl0aG9uJywgJy1waHQnLCAnMS4wJywgJy1waCcsICc3LjQnLCAnLXRuJywgJzgnLCAnLW1hJywgJzUwMCcsICctaW1hZScsICc8aW5maWxlLm1hZT4nLCAnLW9tYWUnLCAnPG91dGZpbGUubWFlPic=

>  <s_epik_input>  (1) 
Tz1DKFtOSDJdKVtDQEBIXShbTkgyXSlbQ0hdKFtDSDJdMSlbQ0gyXU4xU1tDQEBIXTJbQ0gyXVtDSDJdW0NASF0oTihPW0NIM10pW0NASF0oW0NIM10pW0NIMl1bQ0gzXSlPYyhjMjMpW2NIXWMoRilbY0hdW2NIXTM=

>  <s_glide_docking_method>  (1) 
confgen

>  <s_i_glide_gridfile>  (1) 
gpcr_drd2_6luq_protein_autoprepared_prepared

>  <s_lp_Force_Field>  (1) 
S-OPLS

>  <s_lp_Variant>  (1) 
DiffSBDD_8-2

>  <s_m_source_file>  (1) 
generated_generic_title2_ligand_DiffSBDD_2026-06-23_prepared.sdf

>  <GenAI_Model>  (1) 
DiffSBDD

>  <Protein>  (1) 
generic_title2

$$$$
DiffSBDD_80
     RDKit          3D

  0  0  0  0  0  0  0  0  0  0999 V3000
M  V30 BEGIN CTAB
M  V30 COUNTS 80 86 0 0 1
M  V30 BEGIN ATOM
M  V30 1 C 8.574037 5.276973 -14.260817 0
M  V30 2 C 9.768059 3.330781 -22.613373 0
M  V30 3 C 6.692965 5.614051 -18.128196 0
M  V30 4 O 10.562129 5.490616 -21.905494 0
M  V30 5 N 8.975433 6.451177 -8.717446 0 CHG=1
M  V30 6 C 4.616642 7.298424 -18.880131 0
M  V30 7 C 6.048584 6.390351 -17.146450 0
M  V30 8 C 9.602509 4.801382 -22.242381 0
M  V30 9 C 6.451867 7.464551 -14.915942 0
M  V30 10 C 9.732164 6.260202 -11.469196 0 CFG=2
M  V30 11 C 10.401156 6.647054 -8.961437 0 CFG=2
M  V30 12 C 7.164636 4.498977 -21.563545 0 CFG=2
M  V30 13 C 7.869629 4.384507 -11.848093 0 CFG=2
M  V30 14 O 7.755197 3.058333 -13.843213 0
M  V30 15 C 7.307743 2.995715 -21.926217 0
M  V30 16 C 8.190308 5.378420 -22.314436 0
M  V30 17 N 7.705599 4.752032 -18.032091 0
M  V30 18 O 5.450605 4.792514 -11.389255 0
M  V30 19 C 8.285357 5.451651 -9.559997 0
M  V30 20 C 4.992919 7.237233 -17.527746 0
M  V30 21 O 7.438694 6.677399 -11.585028 0
M  V30 22 C 8.056480 5.575898 -15.688570 0 CFG=2
M  V30 23 C 8.027886 3.013767 -16.295341 0
M  V30 24 C 6.612295 6.174222 -15.750065 0 CFG=2
M  V30 25 C 5.292000 6.504566 -19.839369 0
M  V30 26 O 10.685694 7.743851 -8.315615 0 CHG=-1
M  V30 27 C 7.163334 4.788103 -20.067551 0
M  V30 28 C 8.349275 5.696734 -11.109972 0 CFG=1
M  V30 29 C 6.336457 5.665538 -19.370000 0
M  V30 30 N 8.083727 4.144468 -19.294446 0
M  V30 31 C 9.891092 4.511788 -17.042959 0
M  V30 32 C 8.752638 2.452290 -21.863465 0
M  V30 33 C 10.676083 6.857056 -10.436770 0 CFG=2
M  V30 34 C 7.659244 4.404471 -13.396027 0 CFG=2
M  V30 35 C 8.365955 4.472411 -16.744918 0 CFG=1
M  V30 36 C 4.888926 6.579150 -21.300211 0
M  V30 37 O 9.807443 7.678246 -11.190204 0
M  V30 38 C 6.507592 3.861623 -11.264052 0
M  V30 39 C 7.113991 2.788951 -15.081300 0
M  V30 40 H 8.669285 6.249679 -13.793956 0
M  V30 41 H 9.575353 4.850396 -14.268014 0
M  V30 42 H 9.630247 3.232119 -23.689419 0
M  V30 43 H 7.922799 5.436224 -23.369199 0
M  V30 44 H 10.785320 3.009383 -22.392232 0
M  V30 45 H 8.481725 7.323535 -8.902166 0
M  V30 46 H 3.812483 7.952721 -19.185679 0
M  V30 47 H 5.405774 7.749035 -14.810711 0
M  V30 48 H 6.815260 7.360724 -13.900904 0
M  V30 49 H 6.975258 8.304019 -15.368800 0
M  V30 50 H 10.231254 5.913730 -12.367021 0
M  V30 51 H 10.860048 5.701910 -8.684100 0
M  V30 52 H 6.197242 4.696600 -21.991825 0
M  V30 53 H 8.629279 3.629300 -11.637641 0
M  V30 54 H 6.645398 2.392034 -21.305446 0
M  V30 55 H 6.954514 2.858155 -22.949087 0
M  V30 56 H 8.180929 6.400556 -21.934655 0
M  V30 57 H 5.828030 5.662836 -11.310325 0
M  V30 58 H 7.254864 5.423129 -9.211862 0
M  V30 59 H 8.725923 4.484526 -9.320096 0
M  V30 60 H 4.477705 7.839861 -16.794569 0
M  V30 61 H 7.359532 7.352476 -10.906510 0
M  V30 62 H 8.704454 6.390227 -15.984896 0
M  V30 63 H 8.945684 2.459612 -16.102408 0
M  V30 64 H 7.576833 2.482237 -17.133655 0
M  V30 65 H 5.910188 5.454469 -15.341921 0
M  V30 66 H 10.503464 4.376444 -16.153782 0
M  V30 67 H 10.188251 3.723817 -17.735605 0
M  V30 68 H 10.183805 5.460066 -17.495319 0
M  V30 69 H 8.776635 1.443602 -22.276173 0
M  V30 70 H 9.072045 2.341479 -20.828814 0
M  V30 71 H 11.716371 7.041899 -10.698220 0
M  V30 72 H 6.643794 4.757686 -13.539732 0
M  V30 73 H 4.175424 7.391744 -21.437331 0
M  V30 74 H 5.731484 6.815303 -21.948582 0
M  V30 75 H 4.379689 5.669688 -21.618796 0
M  V30 76 H 6.574963 3.594642 -10.211250 0
M  V30 77 H 6.178898 2.951466 -11.769147 0
M  V30 78 H 6.851379 1.730784 -15.058162 0
M  V30 79 H 6.175669 3.321599 -15.172881 0
M  V30 80 H 8.840979 6.247314 -7.740666 0
M  V30 END ATOM
M  V30 BEGIN BOND
M  V30 1 2 7 3
M  V30 2 1 8 2
M  V30 3 2 8 4
M  V30 4 1 11 5
M  V30 5 1 15 12
M  V30 6 1 16 8
M  V30 7 1 16 12
M  V30 8 1 17 3
M  V30 9 1 19 5
M  V30 10 2 20 6
M  V30 11 1 20 7
M  V30 12 1 22 1
M  V30 13 1 24 7
M  V30 14 1 24 9
M  V30 15 1 24 22
M  V30 16 1 25 6
M  V30 17 1 26 11
M  V30 18 1 27 12
M  V30 19 1 28 10
M  V30 20 1 28 13
M  V30 21 1 28 19
M  V30 22 1 28 21 CFG=1
M  V30 23 1 29 3
M  V30 24 2 29 25
M  V30 25 1 29 27
M  V30 26 1 30 17
M  V30 27 2 30 27
M  V30 28 1 32 2
M  V30 29 1 32 15
M  V30 30 1 33 10
M  V30 31 1 33 11
M  V30 32 1 34 1
M  V30 33 1 34 13
M  V30 34 1 34 14
M  V30 35 1 35 17
M  V30 36 1 35 22
M  V30 37 1 35 23
M  V30 38 1 35 31 CFG=3
M  V30 39 1 36 25
M  V30 40 1 37 10
M  V30 41 1 37 33
M  V30 42 1 38 13
M  V30 43 1 38 18
M  V30 44 1 39 14
M  V30 45 1 39 23
M  V30 46 1 40 1
M  V30 47 1 41 1
M  V30 48 1 42 2
M  V30 49 1 43 16
M  V30 50 1 44 2
M  V30 51 1 45 5
M  V30 52 1 46 6
M  V30 53 1 47 9
M  V30 54 1 48 9
M  V30 55 1 49 9
M  V30 56 1 10 50 CFG=3
M  V30 57 1 11 51 CFG=1
M  V30 58 1 12 52 CFG=3
M  V30 59 1 13 53 CFG=3
M  V30 60 1 54 15
M  V30 61 1 55 15
M  V30 62 1 56 16
M  V30 63 1 57 18
M  V30 64 1 58 19
M  V30 65 1 59 19
M  V30 66 1 60 20
M  V30 67 1 61 21
M  V30 68 1 22 62 CFG=3
M  V30 69 1 63 23
M  V30 70 1 64 23
M  V30 71 1 24 65 CFG=1
M  V30 72 1 66 31
M  V30 73 1 67 31
M  V30 74 1 68 31
M  V30 75 1 69 32
M  V30 76 1 70 32
M  V30 77 1 33 71 CFG=3
M  V30 78 1 34 72 CFG=1
M  V30 79 1 73 36
M  V30 80 1 74 36
M  V30 81 1 75 36
M  V30 82 1 76 38
M  V30 83 1 77 38
M  V30 84 1 78 39
M  V30 85 1 79 39
M  V30 86 1 80 5
M  V30 END BOND
M  V30 END CTAB
M  END
>  <i_epik_Tot_Q>  (1) 
0

>  <i_epik_Tot_abs_Q>  (1) 
2

>  <i_i_glide_confnum>  (1) 
89

>  <i_i_glide_lignum>  (1) 
139

>  <i_i_glide_posenum>  (1) 
247

>  <i_i_glide_rotatable_bonds>  (1) 
6

>  <i_lp_mmshare_version>  (1) 
72125

>  <i_m_source_file_index>  (1) 
81

>  <i_f3d_flags>  (1) 
0

>  <num_sample>  (1) 
100

>  <b_lp_Chiralities_Consistent>  (1) 
1

>  <r_epik_Charging_Adjusted_Penalty>  (1) 
0.19389291401224384

>  <r_epik_Ionization_Penalty>  (1) 
0.092004943806736766

>  <r_epik_Ionization_Penalty_Charging>  (1) 
0.091964506543683239

>  <r_epik_Ionization_Penalty_Neutral>  (1) 
4.0437263053531681e-05

>  <r_epik_State_Penalty>  (1) 
0.10192840746856062

>  <r_glide_ring_energy>  (1) 
1.9915023196562252

>  <r_i_docking_score>  (1) 
-5.801982582014106

>  <r_i_glide_ecoul>  (1) 
-10.112457847721956

>  <r_i_glide_eff_state_penalty>  (1) 
0.10192840746856062

>  <r_i_glide_einternal>  (1) 
8.6323831966144411

>  <r_i_glide_emodel>  (1) 
-37.824323409931921

>  <r_i_glide_emodel_strain>  (1) 
1.053199966991059

>  <r_i_glide_energy>  (1) 
-33.457503417274701

>  <r_i_glide_erotb>  (1) 
0.28387705293314092

>  <r_i_glide_esite>  (1) 
-0.14033016227063175

>  <r_i_glide_evdw>  (1) 
-23.345045569552745

>  <r_i_glide_gscore>  (1) 
-5.9039109894826662

>  <r_i_glide_gscore_strain>  (1) 
0

>  <r_i_glide_hbond>  (1) 
-0.31869394257323103

>  <r_i_glide_ligand_efficiency>  (1) 
-0.14876878415420786

>  <r_i_glide_ligand_efficiency_ln>  (1) 
-1.2441097646536421

>  <r_i_glide_ligand_efficiency_sa>  (1) 
-0.50450640318705431

>  <r_i_glide_lipo>  (1) 
-2.3372366169756473

>  <r_i_glide_metal>  (1) 
-0

>  <r_i_glide_rewards>  (1) 
-0.70740636496036646

>  <r_lp_Energy>  (1) 
36.052596000000001

>  <r_lp_tautomer_probability>  (1) 
0.99999997999999979

>  <s_epik_Chemistry_Notes>  (1) 
This compound contains an acetal/aminal-like group ( X-CH(R)-Y where X, Y are N, S, or O) that may be acid/base labile, releasing an aldehyde.

>  <s_epik_cmdline>  (1) 
J2VwaWtfcHl0aG9uJywgJy1waHQnLCAnMS4wJywgJy1waCcsICc3LjQnLCAnLXRuJywgJzgnLCAnLW1hJywgJzUwMCcsICctaW1hZScsICc8aW5maWxlLm1hZT4nLCAnLW9tYWUnLCAnPG91dGZpbGUubWFlPic=

>  <s_epik_input>  (1) 
W0NASF0xMltDQEBIXShPMilbQ0BASF0oW09IXSlbTkhdW0NIMl1bQ0BdMShbT0hdKVtDQEBIXShbQ0gyXVtPSF0pW0NASF0oT1tDSDJdW0NIMl0zKVtDSDJdW0NAQEhdNFtDQEBIXShbQ0gzXSljKGM1bjZbQ0BdMzRbQ0gzXSlbY0hdW2NIXWMoW0NIM10pYzVjKG42KVtDQEhdKFtDSDJdW0NIMl1bQ0gyXTcpW0NIXT1DN1tPSF0=

>  <s_glide_docking_method>  (1) 
confgen

>  <s_i_glide_gridfile>  (1) 
gpcr_drd2_6luq_protein_autoprepared_prepared

>  <s_lp_Force_Field>  (1) 
S-OPLS

>  <s_lp_Variant>  (1) 
DiffSBDD_80-1

>  <s_m_source_file>  (1) 
generated_generic_title2_ligand_DiffSBDD_2026-06-23_prepared.sdf

>  <GenAI_Model>  (1) 
DiffSBDD

>  <Protein>  (1) 
generic_title2

$$$$
DiffSBDD_81
     RDKit          3D

  0  0  0  0  0  0  0  0  0  0999 V3000
M  V30 BEGIN CTAB
M  V30 COUNTS 67 70 0 0 1
M  V30 BEGIN ATOM
M  V30 1 C 8.160427 4.549182 -12.215705 0 CFG=1
M  V30 2 C 11.583006 7.521434 -6.064029 0
M  V30 3 O 11.375407 10.081168 -4.785020 0
M  V30 4 C 12.209647 9.579910 -3.760790 0
M  V30 5 C 7.003471 2.922345 -13.878774 0
M  V30 6 C 6.931432 1.222013 -15.501449 0
M  V30 7 C 6.560043 1.653263 -14.190651 0
M  V30 8 C 9.371364 3.582400 -12.091542 0
M  V30 9 O 12.575419 6.249044 -2.013766 0
M  V30 10 O 5.750101 4.654518 -12.735015 0
M  V30 11 C 9.146051 6.054830 -10.319342 0 CFG=2
M  V30 12 C 6.574376 -0.177476 -17.441335 0
M  V30 13 C 8.651593 4.936675 -15.403544 0 CFG=1
M  V30 14 C 7.955217 5.208952 -10.825346 0
M  V30 15 C 8.102738 3.462252 -15.737249 0
M  V30 16 O 12.975420 8.390227 -1.344849 0
M  V30 17 N 8.428308 5.640461 -13.180365 0
M  V30 18 C 10.995738 6.018221 -4.342679 0
M  V30 19 C 7.727649 3.515183 -14.872924 0
M  V30 20 C 12.290123 8.023063 -3.691599 0 CFG=1
M  V30 21 O 9.375405 5.190239 -14.203761 0
M  V30 22 C 6.850534 3.770089 -12.627636 0 CFG=2
M  V30 23 C 9.246801 6.061774 -8.787735 0
M  V30 24 C 7.740645 2.159879 -16.306132 0
M  V30 25 C 10.326269 7.530111 -6.904975 0 CFG=2
M  V30 26 C 10.380415 6.931061 -8.288140 0 CFG=2
M  V30 27 O 8.975412 7.373886 -10.785023 0
M  V30 28 O 5.249969 -0.409780 -15.560596 0
M  V30 29 C 10.216530 8.418427 -8.121890 0
M  V30 30 C 12.175556 7.587916 -2.180811 0
M  V30 31 N 6.532881 -0.037496 -15.991074 0
M  V30 32 N 11.310189 7.401821 -4.629713 0
M  V30 33 H 12.175404 6.668435 -6.393187 0
M  V30 34 H 12.173951 8.404112 -6.304240 0
M  V30 35 H 10.840909 9.348840 -5.068690 0
M  V30 36 H 11.783721 9.990209 -2.845548 0
M  V30 37 H 13.213530 9.990222 -3.862196 0
M  V30 38 H 5.975605 1.049590 -13.512201 0
M  V30 39 H 9.375411 3.063613 -11.136873 0
M  V30 40 H 9.375432 2.802711 -12.845234 0
M  V30 41 H 10.323281 4.102178 -12.166291 0
M  V30 42 H 12.224727 5.922381 -1.199086 0
M  V30 43 H 5.773093 5.241425 -11.994424 0
M  V30 44 H 10.092797 5.699848 -10.715611 0
M  V30 45 H 7.604236 -0.233380 -17.794608 0
M  V30 46 H 6.080503 -1.099597 -17.751652 0
M  V30 47 H 6.070815 0.654036 -17.937382 0
M  V30 48 H 7.948899 5.726435 -15.666232 0
M  V30 49 H 7.051408 5.819922 -10.802287 0
M  V30 50 H 7.762881 4.411928 -10.105995 0
M  V30 51 H 12.791371 9.307154 -1.493056 0
M  V30 52 H 8.904795 6.389311 -12.687631 0
M  V30 53 H 10.492620 5.933970 -3.380972 0
M  V30 54 H 10.323230 5.600348 -5.087750 0
M  V30 55 H 11.911019 5.432028 -4.335785 0
M  V30 56 H 13.296036 7.733046 -3.985019 0
M  V30 57 H 6.575404 3.086793 -11.828642 0
M  V30 58 H 8.309381 6.390215 -8.339281 0
M  V30 59 H 9.415565 5.046824 -8.424978 0
M  V30 60 H 8.062086 1.897425 -17.301786 0
M  V30 61 H 9.400035 7.384845 -6.350237 0
M  V30 62 H 11.358657 6.613197 -8.642446 0
M  V30 63 H 8.220848 7.719204 -10.295609 0
M  V30 64 H 5.373416 -1.109014 -14.927604 0
M  V30 65 H 11.068070 9.044619 -8.377977 0
M  V30 66 H 9.239376 8.846812 -8.339421 0
M  V30 67 H 11.148275 7.684686 -1.831896 0
M  V30 END ATOM
M  V30 BEGIN BOND
M  V30 1 1 4 3
M  V30 2 2 7 5
M  V30 3 1 7 6
M  V30 4 1 1 8 CFG=1
M  V30 5 1 14 1
M  V30 6 1 14 11
M  V30 7 1 15 13
M  V30 8 1 17 1
M  V30 9 1 19 5
M  V30 10 1 19 13
M  V30 11 2 19 15
M  V30 12 1 20 4
M  V30 13 1 21 13
M  V30 14 1 21 17
M  V30 15 1 22 1
M  V30 16 1 22 5
M  V30 17 1 22 10
M  V30 18 1 23 11
M  V30 19 2 24 6
M  V30 20 1 24 15
M  V30 21 1 25 2
M  V30 22 1 26 23
M  V30 23 1 26 25
M  V30 24 1 27 11
M  V30 25 1 29 25
M  V30 26 1 29 26
M  V30 27 1 30 9
M  V30 28 1 30 16
M  V30 29 1 30 20
M  V30 30 1 31 6
M  V30 31 1 31 12
M  V30 32 1 31 28
M  V30 33 1 32 2
M  V30 34 1 32 18
M  V30 35 1 32 20
M  V30 36 1 33 2
M  V30 37 1 34 2
M  V30 38 1 35 3
M  V30 39 1 36 4
M  V30 40 1 37 4
M  V30 41 1 38 7
M  V30 42 1 39 8
M  V30 43 1 40 8
M  V30 44 1 41 8
M  V30 45 1 42 9
M  V30 46 1 43 10
M  V30 47 1 11 44 CFG=3
M  V30 48 1 45 12
M  V30 49 1 46 12
M  V30 50 1 47 12
M  V30 51 1 13 48 CFG=3
M  V30 52 1 49 14
M  V30 53 1 50 14
M  V30 54 1 51 16
M  V30 55 1 52 17
M  V30 56 1 53 18
M  V30 57 1 54 18
M  V30 58 1 55 18
M  V30 59 1 20 56 CFG=3
M  V30 60 1 22 57 CFG=1
M  V30 61 1 58 23
M  V30 62 1 59 23
M  V30 63 1 60 24
M  V30 64 1 25 61 CFG=1
M  V30 65 1 26 62 CFG=3
M  V30 66 1 63 27
M  V30 67 1 64 28
M  V30 68 1 65 29
M  V30 69 1 66 29
M  V30 70 1 67 30
M  V30 END BOND
M  V30 END CTAB
M  END
>  <i_epik_Tot_Q>  (1) 
0

>  <i_epik_Tot_abs_Q>  (1) 
0

>  <i_i_glide_confnum>  (1) 
1596

>  <i_i_glide_lignum>  (1) 
145

>  <i_i_glide_posenum>  (1) 
154

>  <i_i_glide_rotatable_bonds>  (1) 
16

>  <i_lp_mmshare_version>  (1) 
72125

>  <i_m_source_file_index>  (1) 
82

>  <i_f3d_flags>  (1) 
0

>  <num_sample>  (1) 
100

>  <b_lp_Chiralities_Consistent>  (1) 
1

>  <r_epik_Charging_Adjusted_Penalty>  (1) 
0.53465553772288132

>  <r_epik_Ionization_Penalty>  (1) 
0.53502174055569018

>  <r_epik_Ionization_Penalty_Charging>  (1) 
0

>  <r_epik_Ionization_Penalty_Neutral>  (1) 
0.53502174055569018

>  <r_epik_State_Penalty>  (1) 
0.53465553772288132

>  <r_glide_ring_energy>  (1) 
0

>  <r_i_docking_score>  (1) 
-5.7953988133114684

>  <r_i_glide_ecoul>  (1) 
-10.195030830846598

>  <r_i_glide_eff_state_penalty>  (1) 
0.53465553772288132

>  <r_i_glide_einternal>  (1) 
16.569372636801759

>  <r_i_glide_emodel>  (1) 
-48.286898926955665

>  <r_i_glide_emodel_strain>  (1) 
4.1150481839022177

>  <r_i_glide_energy>  (1) 
-46.390900414327753

>  <r_i_glide_erotb>  (1) 
0.97589078675502272

>  <r_i_glide_esite>  (1) 
-0.0051166150484786288

>  <r_i_glide_evdw>  (1) 
-36.195869583481155

>  <r_i_glide_gscore>  (1) 
-6.3300543510343497

>  <r_i_glide_gscore_strain>  (1) 
0.028762045975554429

>  <r_i_glide_hbond>  (1) 
-0.27489436331569156

>  <r_i_glide_ligand_efficiency>  (1) 
-0.18110621291598339

>  <r_i_glide_ligand_efficiency_ln>  (1) 
-1.2977477709056036

>  <r_i_glide_ligand_efficiency_sa>  (1) 
-0.57497638580161758

>  <r_i_glide_lipo>  (1) 
-2.3218744907638311

>  <r_i_glide_metal>  (1) 
-0

>  <r_i_glide_rewards>  (1) 
-1.3937736108358769

>  <r_lp_Energy>  (1) 
74.761414000000002

>  <s_epik_Chemistry_Notes>  (1) 
This compound contains an acetal/aminal-like group ( X-CH(R)-Y where X, Y are N, S, or O) that may be acid/base labile, releasing an aldehyde. This compound has a N-S or N-O group and may undergo hydrolysis at high or low pH.

>  <s_epik_cmdline>  (1) 
J2VwaWtfcHl0aG9uJywgJy1waHQnLCAnMS4wJywgJy1waCcsICc3LjQnLCAnLXRuJywgJzgnLCAnLW1hJywgJzUwMCcsICctaW1hZScsICc8aW5maWxlLm1hZT4nLCAnLW9tYWUnLCAnPG91dGZpbGUubWFlPic=

>  <s_epik_input>  (1) 
W0NIM11OKFtPSF0pYyhbY0hdMSlbY0hdYyhjMmMxMylbQ0BASF0yT1tOSF1bQ0BdKFtDSDNdKShbQ0BIXTNbT0hdKVtDSDJdW0NAQEhdKFtPSF0pW0NIMl1bQ0BASF0oW0NIMl00KVtDQEhdNFtDSDJdTihbQ0gzXSlbQ0BASF0oW0NIMl1bT0hdKVtDSF0oW09IXSlbT0hd

>  <s_glide_docking_method>  (1) 
confgen

>  <s_i_glide_gridfile>  (1) 
gpcr_drd2_6luq_protein_autoprepared_prepared

>  <s_lp_Force_Field>  (1) 
S-OPLS

>  <s_lp_Variant>  (1) 
DiffSBDD_81-3

>  <s_m_source_file>  (1) 
generated_generic_title2_ligand_DiffSBDD_2026-06-23_prepared.sdf

>  <GenAI_Model>  (1) 
DiffSBDD

>  <Protein>  (1) 
generic_title2

$$$$
DiffSBDD_80
     RDKit          3D

  0  0  0  0  0  0  0  0  0  0999 V3000
M  V30 BEGIN CTAB
M  V30 COUNTS 80 86 0 0 1
M  V30 BEGIN ATOM
M  V30 1 C 8.597427 5.260018 -14.285020 0
M  V30 2 C 11.608965 4.902497 -22.241001 0
M  V30 3 C 7.320297 5.729624 -18.362332 0
M  V30 4 O 11.653656 7.014910 -21.083105 0
M  V30 5 N 8.575479 5.990226 -8.637312 0 CHG=1
M  V30 6 C 5.228560 7.292088 -19.315031 0
M  V30 7 C 6.406205 6.285398 -17.446912 0
M  V30 8 C 10.998088 6.206693 -21.737888 0
M  V30 9 C 6.285174 7.090577 -15.066407 0
M  V30 10 C 9.375638 6.212230 -11.344100 0 CFG=2
M  V30 11 C 10.012864 6.005962 -8.827339 0 CFG=2
M  V30 12 C 8.627705 5.265449 -21.726409 0 CFG=2
M  V30 13 C 7.723222 4.207820 -11.993060 0 CFG=2
M  V30 14 O 8.068067 2.953155 -14.066085 0
M  V30 15 C 9.219400 3.927147 -22.249354 0
M  V30 16 C 9.535549 6.465152 -22.090224 0
M  V30 17 N 8.396617 4.962157 -18.165129 0
M  V30 18 O 5.263130 4.405980 -11.986722 0
M  V30 19 C 7.784190 5.203728 -9.620433 0
M  V30 20 C 5.342241 7.069721 -17.931428 0
M  V30 21 O 7.045830 6.451817 -11.585023 0
M  V30 22 C 8.217439 5.513539 -15.757579 0 CFG=2
M  V30 23 C 8.449612 3.036516 -16.566445 0
M  V30 24 C 6.730267 5.940224 -15.999846 0 CFG=2
M  V30 25 C 6.179592 6.728795 -20.202253 0
M  V30 26 O 10.435308 6.851147 -7.929522 0 CHG=-1
M  V30 27 C 8.274243 5.277914 -20.244558 0
M  V30 28 C 8.014300 5.516577 -11.140974 0 CFG=1
M  V30 29 C 7.212436 5.937848 -19.632778 0
M  V30 30 N 9.094127 4.604774 -19.386143 0
M  V30 31 C 10.365845 4.665442 -16.787468 0
M  V30 32 C 10.710285 3.698494 -21.904646 0
M  V30 33 C 10.300747 6.565771 -10.200688 0 CFG=2
M  V30 34 C 7.725380 4.242112 -13.565771 0 CFG=2
M  V30 35 C 8.811019 4.540694 -16.809039 0 CFG=1
M  V30 36 C 6.065506 6.982811 -21.694306 0
M  V30 37 O 9.410873 7.526679 -10.751621 0
M  V30 38 C 6.336618 3.582688 -11.604034 0
M  V30 39 C 7.559496 2.640295 -15.364452 0
M  V30 40 H 8.478113 6.227255 -13.809115 0
M  V30 41 H 9.644529 4.989403 -14.169192 0
M  V30 42 H 11.734879 4.983581 -23.320540 0
M  V30 43 H 9.492790 6.646619 -23.164526 0
M  V30 44 H 12.602084 4.770274 -21.811311 0
M  V30 45 H 8.258811 6.952191 -8.746322 0
M  V30 46 H 4.419674 7.898409 -19.698613 0
M  V30 47 H 5.234706 7.343697 -15.192775 0
M  V30 48 H 6.376345 6.824226 -14.018709 0
M  V30 49 H 6.870950 7.994699 -15.232467 0
M  V30 50 H 9.883581 6.137254 -12.295629 0
M  V30 51 H 10.316780 4.962160 -8.805540 0
M  V30 52 H 7.730361 5.331117 -22.323827 0
M  V30 53 H 8.507180 3.504750 -11.708936 0
M  V30 54 H 8.613713 3.086641 -21.909607 0
M  V30 55 H 9.139365 3.927771 -23.337587 0
M  V30 56 H 9.194572 7.378437 -21.602319 0
M  V30 57 H 5.546389 5.305615 -11.851461 0
M  V30 58 H 6.735067 5.363683 -9.396425 0
M  V30 59 H 7.987238 4.164075 -9.412959 0
M  V30 60 H 4.625827 7.503663 -17.251925 0
M  V30 61 H 6.980421 7.144779 -10.919376 0
M  V30 62 H 8.803455 6.390199 -15.950607 0
M  V30 63 H 9.364649 2.447717 -16.491969 0
M  V30 64 H 7.959272 2.645834 -17.460350 0
M  V30 65 H 6.074156 5.102901 -15.792786 0
M  V30 66 H 10.811834 4.390837 -15.834369 0
M  V30 67 H 10.834736 4.017190 -17.529243 0
M  V30 68 H 10.689599 5.682709 -17.013773 0
M  V30 69 H 11.070004 2.823169 -22.444892 0
M  V30 70 H 10.828241 3.448077 -20.851517 0
M  V30 71 H 11.339467 6.790229 -10.427426 0
M  V30 72 H 6.708669 4.459134 -13.867179 0
M  V30 73 H 5.284672 7.720682 -21.880108 0
M  V30 74 H 6.976399 7.406046 -22.113737 0
M  V30 75 H 5.762282 6.082951 -22.228759 0
M  V30 76 H 6.175430 3.398546 -10.542038 0
M  V30 77 H 6.207089 2.614519 -12.090155 0
M  V30 78 H 7.466720 1.553638 -15.381917 0
M  V30 79 H 6.547732 3.001104 -15.495028 0
M  V30 80 H 8.370468 5.715674 -7.690242 0
M  V30 END ATOM
M  V30 BEGIN BOND
M  V30 1 2 7 3
M  V30 2 1 8 2
M  V30 3 2 8 4
M  V30 4 1 11 5
M  V30 5 1 15 12
M  V30 6 1 16 8
M  V30 7 1 16 12
M  V30 8 1 17 3
M  V30 9 1 19 5
M  V30 10 2 20 6
M  V30 11 1 20 7
M  V30 12 1 22 1
M  V30 13 1 24 7
M  V30 14 1 24 9
M  V30 15 1 24 22
M  V30 16 1 25 6
M  V30 17 1 26 11
M  V30 18 1 27 12
M  V30 19 1 28 10
M  V30 20 1 28 13
M  V30 21 1 28 19
M  V30 22 1 28 21 CFG=3
M  V30 23 1 29 3
M  V30 24 2 29 25
M  V30 25 1 29 27
M  V30 26 1 30 17
M  V30 27 2 30 27
M  V30 28 1 32 2
M  V30 29 1 32 15
M  V30 30 1 33 10
M  V30 31 1 33 11
M  V30 32 1 34 1
M  V30 33 1 34 13
M  V30 34 1 34 14
M  V30 35 1 35 17
M  V30 36 1 35 22
M  V30 37 1 35 23
M  V30 38 1 35 31 CFG=3
M  V30 39 1 36 25
M  V30 40 1 37 10
M  V30 41 1 37 33
M  V30 42 1 38 13
M  V30 43 1 38 18
M  V30 44 1 39 14
M  V30 45 1 39 23
M  V30 46 1 40 1
M  V30 47 1 41 1
M  V30 48 1 42 2
M  V30 49 1 43 16
M  V30 50 1 44 2
M  V30 51 1 45 5
M  V30 52 1 46 6
M  V30 53 1 47 9
M  V30 54 1 48 9
M  V30 55 1 49 9
M  V30 56 1 10 50 CFG=3
M  V30 57 1 11 51 CFG=1
M  V30 58 1 12 52 CFG=3
M  V30 59 1 13 53 CFG=3
M  V30 60 1 54 15
M  V30 61 1 55 15
M  V30 62 1 56 16
M  V30 63 1 57 18
M  V30 64 1 58 19
M  V30 65 1 59 19
M  V30 66 1 60 20
M  V30 67 1 61 21
M  V30 68 1 22 62 CFG=3
M  V30 69 1 63 23
M  V30 70 1 64 23
M  V30 71 1 24 65 CFG=1
M  V30 72 1 66 31
M  V30 73 1 67 31
M  V30 74 1 68 31
M  V30 75 1 69 32
M  V30 76 1 70 32
M  V30 77 1 33 71 CFG=3
M  V30 78 1 34 72 CFG=3
M  V30 79 1 73 36
M  V30 80 1 74 36
M  V30 81 1 75 36
M  V30 82 1 76 38
M  V30 83 1 77 38
M  V30 84 1 78 39
M  V30 85 1 79 39
M  V30 86 1 80 5
M  V30 END BOND
M  V30 END CTAB
M  END
>  <i_epik_Tot_Q>  (1) 
0

>  <i_epik_Tot_abs_Q>  (1) 
2

>  <i_i_glide_confnum>  (1) 
89

>  <i_i_glide_lignum>  (1) 
139

>  <i_i_glide_posenum>  (1) 
361

>  <i_i_glide_rotatable_bonds>  (1) 
6

>  <i_lp_mmshare_version>  (1) 
72125

>  <i_m_source_file_index>  (1) 
81

>  <i_f3d_flags>  (1) 
0

>  <num_sample>  (1) 
100

>  <b_lp_Chiralities_Consistent>  (1) 
1

>  <r_epik_Charging_Adjusted_Penalty>  (1) 
0.19389291401224384

>  <r_epik_Ionization_Penalty>  (1) 
0.092004943806736766

>  <r_epik_Ionization_Penalty_Charging>  (1) 
0.091964506543683239

>  <r_epik_Ionization_Penalty_Neutral>  (1) 
4.0437263053531681e-05

>  <r_epik_State_Penalty>  (1) 
0.10192840746856062

>  <r_glide_ring_energy>  (1) 
1.9915023196562252

>  <r_i_docking_score>  (1) 
-5.7868897423139929

>  <r_i_glide_ecoul>  (1) 
-9.7169334797742248

>  <r_i_glide_eff_state_penalty>  (1) 
0.10192840746856062

>  <r_i_glide_einternal>  (1) 
7.3745804784026134

>  <r_i_glide_emodel>  (1) 
-34.554761401151183

>  <r_i_glide_emodel_strain>  (1) 
1.4934868127135985

>  <r_i_glide_energy>  (1) 
-30.024216680981738

>  <r_i_glide_erotb>  (1) 
0.19871393705319862

>  <r_i_glide_esite>  (1) 
-0.10095381507455344

>  <r_i_glide_evdw>  (1) 
-20.307283201207515

>  <r_i_glide_gscore>  (1) 
-5.8888181497825531

>  <r_i_glide_gscore_strain>  (1) 
0

>  <r_i_glide_hbond>  (1) 
-0.32278012271929257

>  <r_i_glide_ligand_efficiency>  (1) 
-0.14838178826446136

>  <r_i_glide_ligand_efficiency_ln>  (1) 
-1.2408734313862051

>  <r_i_glide_ligand_efficiency_sa>  (1) 
-0.50319401829734656

>  <r_i_glide_lipo>  (1) 
-2.1258269093383806

>  <r_i_glide_metal>  (1) 
-0

>  <r_i_glide_rewards>  (1) 
-1.0650670576770167

>  <r_lp_Energy>  (1) 
36.052596000000001

>  <r_lp_tautomer_probability>  (1) 
0.99999997999999979

>  <s_epik_Chemistry_Notes>  (1) 
This compound contains an acetal/aminal-like group ( X-CH(R)-Y where X, Y are N, S, or O) that may be acid/base labile, releasing an aldehyde.

>  <s_epik_cmdline>  (1) 
J2VwaWtfcHl0aG9uJywgJy1waHQnLCAnMS4wJywgJy1waCcsICc3LjQnLCAnLXRuJywgJzgnLCAnLW1hJywgJzUwMCcsICctaW1hZScsICc8aW5maWxlLm1hZT4nLCAnLW9tYWUnLCAnPG91dGZpbGUubWFlPic=

>  <s_epik_input>  (1) 
W0NASF0xMltDQEBIXShPMilbQ0BASF0oW09IXSlbTkhdW0NIMl1bQ0BdMShbT0hdKVtDQEBIXShbQ0gyXVtPSF0pW0NASF0oT1tDSDJdW0NIMl0zKVtDSDJdW0NAQEhdNFtDQEBIXShbQ0gzXSljKGM1bjZbQ0BdMzRbQ0gzXSlbY0hdW2NIXWMoW0NIM10pYzVjKG42KVtDQEhdKFtDSDJdW0NIMl1bQ0gyXTcpW0NIXT1DN1tPSF0=

>  <s_glide_docking_method>  (1) 
confgen

>  <s_i_glide_gridfile>  (1) 
gpcr_drd2_6luq_protein_autoprepared_prepared

>  <s_lp_Force_Field>  (1) 
S-OPLS

>  <s_lp_Variant>  (1) 
DiffSBDD_80-1

>  <s_m_source_file>  (1) 
generated_generic_title2_ligand_DiffSBDD_2026-06-23_prepared.sdf

>  <GenAI_Model>  (1) 
DiffSBDD

>  <Protein>  (1) 
generic_title2

$$$$
DiffSBDD_20
     RDKit          3D

  0  0  0  0  0  0  0  0  0  0999 V3000
M  V30 BEGIN CTAB
M  V30 COUNTS 63 66 0 0 1
M  V30 BEGIN ATOM
M  V30 1 C 11.838207 9.491367 -5.144234 0
M  V30 2 C 6.972143 5.169020 -14.279251 0 CFG=2
M  V30 3 O 7.208814 1.601282 -16.424994 0
M  V30 4 O 6.327828 7.991083 -11.984912 0
M  V30 5 C 6.814424 3.809396 -13.613812 0
M  V30 6 O 7.803422 0.400517 -13.569718 0
M  V30 7 C 8.396921 5.600924 -14.498096 0 CFG=2
M  V30 8 C 11.086891 6.781353 -4.936346 0
M  V30 9 N 8.349228 7.036510 -12.479370 0
M  V30 10 C 8.531953 3.467715 -16.037917 0
M  V30 11 C 4.384837 0.356598 -14.381038 0
M  V30 12 C 12.137463 8.770593 -4.053531 0
M  V30 13 C 11.775517 7.369463 -3.936716 0
M  V30 14 C 9.081328 7.502755 -11.293554 0
M  V30 15 C 12.146668 6.580475 -2.694235 0
M  V30 16 C 9.205916 4.527712 -15.176568 0
M  V30 17 C 6.930023 6.793372 -12.312744 0 CFG=2
M  V30 18 C 7.054760 2.619638 -14.221959 0
M  V30 19 C 6.731530 1.321919 -13.483588 0 CFG=1
M  V30 20 C 6.203959 6.301018 -13.590588 0
M  V30 21 C 10.634125 7.472443 -6.191552 0 CFG=2
M  V30 22 C 9.064846 5.965837 -13.150388 0
M  V30 23 C 7.611246 2.573642 -15.594100 0
M  V30 24 C 10.338947 6.645520 -7.452436 0 CFG=2
M  V30 25 C 5.456691 0.752974 -13.952912 0
M  V30 26 C 11.116598 8.922987 -6.355137 0
M  V30 27 S 9.375828 6.216431 -10.030164 0
M  V30 28 C 4.975745 7.955761 -11.564594 0
M  V30 29 C 10.428992 7.166850 -8.879391 0
M  V30 30 C 9.208222 7.145321 -6.604846 0
M  V30 31 H 12.118969 10.532224 -5.193290 0
M  V30 32 H 6.504594 5.069894 -15.261705 0
M  V30 33 H 7.739763 1.647141 -17.205693 0
M  V30 34 H 6.411922 3.819074 -12.609464 0
M  V30 35 H 8.594619 0.882061 -13.758561 0
M  V30 36 H 8.370849 6.458466 -15.161386 0
M  V30 37 H 10.813168 5.741053 -4.836242 0
M  V30 38 H 8.896615 3.388203 -17.051521 0
M  V30 39 H 3.470395 -0.007288 -14.790633 0
M  V30 40 H 12.660231 9.249447 -3.237046 0
M  V30 41 H 10.052463 7.880642 -11.612828 0
M  V30 42 H 8.574667 8.346545 -10.831809 0
M  V30 43 H 12.843681 7.126894 -2.058773 0
M  V30 44 H 11.246328 6.385996 -2.108688 0
M  V30 45 H 12.575331 5.612764 -2.949793 0
M  V30 46 H 10.033830 4.970980 -15.731312 0
M  V30 47 H 9.640372 3.990227 -14.339592 0
M  V30 48 H 6.788669 6.088023 -11.491168 0
M  V30 49 H 6.594064 1.536224 -12.424873 0
M  V30 50 H 6.120764 7.146131 -14.276131 0
M  V30 51 H 5.191554 5.982481 -13.348174 0
M  V30 52 H 10.104901 6.260062 -13.299517 0
M  V30 53 H 9.085578 5.087891 -12.504655 0
M  V30 54 H 10.574237 5.587325 -7.373904 0
M  V30 55 H 11.805241 8.982115 -7.198394 0
M  V30 56 H 10.268051 9.566066 -6.579811 0
M  V30 57 H 4.795278 8.695887 -10.791503 0
M  V30 58 H 4.340812 8.238977 -12.394892 0
M  V30 59 H 4.678426 6.985901 -11.167245 0
M  V30 60 H 11.466060 7.141015 -9.213894 0
M  V30 61 H 10.111925 8.207721 -8.902270 0
M  V30 62 H 8.586045 7.945522 -7.006537 0
M  V30 63 H 8.657616 6.378891 -6.062522 0
M  V30 END ATOM
M  V30 BEGIN BOND
M  V30 1 1 5 2
M  V30 2 1 7 2
M  V30 3 2 12 1
M  V30 4 2 13 8
M  V30 5 1 13 12
M  V30 6 1 14 9
M  V30 7 1 15 13
M  V30 8 1 16 7
M  V30 9 1 16 10
M  V30 10 1 17 4
M  V30 11 1 17 9
M  V30 12 2 18 5
M  V30 13 1 19 6
M  V30 14 1 19 18
M  V30 15 1 20 2
M  V30 16 1 20 17
M  V30 17 1 21 8
M  V30 18 1 22 7
M  V30 19 1 22 9
M  V30 20 1 23 3
M  V30 21 2 23 10
M  V30 22 1 23 18
M  V30 23 1 24 21
M  V30 24 3 25 11
M  V30 25 1 25 19
M  V30 26 1 26 1
M  V30 27 1 21 26 CFG=3
M  V30 28 1 27 14
M  V30 29 1 28 4
M  V30 30 1 29 24
M  V30 31 1 29 27
M  V30 32 1 30 21
M  V30 33 1 30 24
M  V30 34 1 31 1
M  V30 35 1 2 32 CFG=3
M  V30 36 1 33 3
M  V30 37 1 34 5
M  V30 38 1 35 6
M  V30 39 1 7 36 CFG=3
M  V30 40 1 37 8
M  V30 41 1 38 10
M  V30 42 1 39 11
M  V30 43 1 40 12
M  V30 44 1 41 14
M  V30 45 1 42 14
M  V30 46 1 43 15
M  V30 47 1 44 15
M  V30 48 1 45 15
M  V30 49 1 46 16
M  V30 50 1 47 16
M  V30 51 1 17 48 CFG=1
M  V30 52 1 19 49 CFG=1
M  V30 53 1 50 20
M  V30 54 1 51 20
M  V30 55 1 52 22
M  V30 56 1 53 22
M  V30 57 1 24 54 CFG=3
M  V30 58 1 55 26
M  V30 59 1 56 26
M  V30 60 1 57 28
M  V30 61 1 58 28
M  V30 62 1 59 28
M  V30 63 1 60 29
M  V30 64 1 61 29
M  V30 65 1 62 30
M  V30 66 1 63 30
M  V30 END BOND
M  V30 END CTAB
M  END
>  <i_epik_Tot_Q>  (1) 
0

>  <i_epik_Tot_abs_Q>  (1) 
0

>  <i_i_glide_confnum>  (1) 
4

>  <i_i_glide_lignum>  (1) 
37

>  <i_i_glide_posenum>  (1) 
378

>  <i_i_glide_rotatable_bonds>  (1) 
9

>  <i_lp_mmshare_version>  (1) 
72125

>  <i_m_source_file_index>  (1) 
21

>  <i_f3d_flags>  (1) 
0

>  <num_sample>  (1) 
100

>  <b_lp_Chiralities_Consistent>  (1) 
1

>  <r_epik_Charging_Adjusted_Penalty>  (1) 
0.01950513855595163

>  <r_epik_Ionization_Penalty>  (1) 
0.020135141086582313

>  <r_epik_Ionization_Penalty_Charging>  (1) 
0

>  <r_epik_Ionization_Penalty_Neutral>  (1) 
0.020135141086582313

>  <r_epik_State_Penalty>  (1) 
0.01950513855595163

>  <r_glide_ring_energy>  (1) 
0.0008246989819377348

>  <r_i_docking_score>  (1) 
-5.7848964885758702

>  <r_i_glide_ecoul>  (1) 
0.079962487475763844

>  <r_i_glide_eff_state_penalty>  (1) 
0.01950513855595163

>  <r_i_glide_einternal>  (1) 
4.2313977726819552

>  <r_i_glide_emodel>  (1) 
-41.019913424386772

>  <r_i_glide_emodel_strain>  (1) 
2.2553662758755877

>  <r_i_glide_energy>  (1) 
-36.556258489456489

>  <r_i_glide_erotb>  (1) 
0.65156125310283941

>  <r_i_glide_esite>  (1) 
-0.071715537842945029

>  <r_i_glide_evdw>  (1) 
-36.63622097693225

>  <r_i_glide_gscore>  (1) 
-5.8044016271318215

>  <r_i_glide_gscore_strain>  (1) 
0

>  <r_i_glide_hbond>  (1) 
0

>  <r_i_glide_ligand_efficiency>  (1) 
-0.19282988295252901

>  <r_i_glide_ligand_efficiency_ln>  (1) 
-1.3143915137001074

>  <r_i_glide_ligand_efficiency_sa>  (1) 
-0.59916728042937606

>  <r_i_glide_lipo>  (1) 
-3.3321736463766403

>  <r_i_glide_metal>  (1) 
-0

>  <r_i_glide_rewards>  (1) 
-1.2322570202898275

>  <r_lp_Energy>  (1) 
31.117341

>  <s_epik_Chemistry_Notes>  (1) 
This compound contains an acetal/aminal-like group ( X-CH(R)-Y where X, Y are N, S, or O) that may be acid/base labile, releasing an aldehyde.

>  <s_epik_cmdline>  (1) 
J2VwaWtfcHl0aG9uJywgJy1waHQnLCAnMS4wJywgJy1waCcsICc3LjQnLCAnLXRuJywgJzgnLCAnLW1hJywgJzUwMCcsICctaW1hZScsICc8aW5maWxlLm1hZT4nLCAnLW9tYWUnLCAnPG91dGZpbGUubWFlPic=

>  <s_epik_input>  (1) 
W0NIMl0xW0NIXT1bQ0hdQyhbQ0gzXSk9W0NIXVtDQF0xMltDQEBIXShbQ0gyXTIpW0NIMl1TW0NIMl1OKFtDQEhdKFtDSDJdMylPW0NIM10pW0NIMl1bQ0BIXShbQ0BIXTM0KVtDSDJdW0NIXT1DKFtPSF0pQyg9W0NIXTQpW0NASF0oW09IXSlDI1tDSF0=

>  <s_glide_docking_method>  (1) 
confgen

>  <s_i_glide_gridfile>  (1) 
gpcr_drd2_6luq_protein_autoprepared_prepared

>  <s_lp_Force_Field>  (1) 
S-OPLS

>  <s_lp_Variant>  (1) 
DiffSBDD_20-1

>  <s_m_source_file>  (1) 
generated_generic_title2_ligand_DiffSBDD_2026-06-23_prepared.sdf

>  <GenAI_Model>  (1) 
DiffSBDD

>  <Protein>  (1) 
generic_title2

$$$$
DiffSBDD_11
     RDKit          3D

  0  0  0  0  0  0  0  0  0  0999 V3000
M  V30 BEGIN CTAB
M  V30 COUNTS 44 44 0 0 1
M  V30 BEGIN ATOM
M  V30 1 C 7.543819 5.111617 -11.823168 0 CFG=1
M  V30 2 C 12.490974 9.257436 -6.674618 0
M  V30 3 C 9.009211 5.561837 -12.001634 0
M  V30 4 C 10.943127 7.761446 -9.883389 0
M  V30 5 C 12.259173 8.066902 -3.312060 0
M  V30 6 C 11.093754 8.248921 -8.439196 0 CFG=1
M  V30 7 C 10.591469 7.875702 -5.978302 0
M  V30 8 C 9.460339 7.701872 -10.250947 0
M  V30 9 C 10.361771 7.401181 -7.385883 0 CFG=2
M  V30 10 C 7.358050 3.694531 -12.379873 0
M  V30 11 N 7.106256 5.190247 -10.411448 0 CHG=1
M  V30 12 N 11.553505 8.702114 -5.665766 0 CHG=1
M  V30 13 C 11.755548 9.161663 -4.269174 0
M  V30 14 C 10.668952 5.902114 -7.422915 0
M  V30 15 C 12.528360 8.522604 -8.020230 0
M  V30 16 S 9.186067 7.364671 -11.985314 0
M  V30 17 H 6.894412 5.776062 -12.395517 0
M  V30 18 H 12.175387 10.294904 -6.785026 0
M  V30 19 H 13.487104 9.272067 -6.231482 0
M  V30 20 H 9.674933 5.099857 -11.271207 0
M  V30 21 H 9.365339 5.236090 -12.980550 0
M  V30 22 H 11.458263 8.452019 -10.550711 0
M  V30 23 H 11.415320 6.792480 -10.023666 0
M  V30 24 H 12.322216 8.451084 -2.293430 0
M  V30 25 H 13.254669 7.718644 -3.585014 0
M  V30 26 H 11.599234 7.199111 -3.293703 0
M  V30 27 H 10.571093 9.190228 -8.425854 0
M  V30 28 H 9.956176 7.527954 -5.185024 0
M  V30 29 H 8.975406 6.928495 -9.666148 0
M  V30 30 H 8.975598 8.652317 -10.023682 0
M  V30 31 H 7.466012 3.690622 -13.465159 0
M  V30 32 H 6.372323 3.287467 -12.150620 0
M  V30 33 H 8.118116 3.020559 -11.985261 0
M  V30 34 H 7.712052 4.643390 -9.818990 0
M  V30 35 H 6.158674 4.854453 -10.317663 0
M  V30 36 H 12.464765 9.989582 -4.296403 0
M  V30 37 H 10.813992 9.590178 -3.926697 0
M  V30 38 H 9.958225 5.382817 -6.785106 0
M  V30 39 H 11.676983 5.675827 -7.073454 0
M  V30 40 H 10.549980 5.474031 -8.415477 0
M  V30 41 H 13.083552 7.590257 -7.940481 0
M  V30 42 H 13.040682 9.127344 -8.768566 0
M  V30 43 H 7.114466 6.164558 -10.099465 0
M  V30 44 H 9.290054 7.514158 -7.555304 0
M  V30 END ATOM
M  V30 BEGIN BOND
M  V30 1 1 3 1
M  V30 2 1 6 4
M  V30 3 1 8 4
M  V30 4 1 9 6
M  V30 5 1 9 7
M  V30 6 1 10 1
M  V30 7 1 11 1
M  V30 8 1 12 2
M  V30 9 2 12 7
M  V30 10 1 13 5
M  V30 11 1 13 12
M  V30 12 1 14 9
M  V30 13 1 15 2
M  V30 14 1 15 6
M  V30 15 1 16 3
M  V30 16 1 16 8
M  V30 17 1 1 17 CFG=3
M  V30 18 1 18 2
M  V30 19 1 19 2
M  V30 20 1 20 3
M  V30 21 1 21 3
M  V30 22 1 22 4
M  V30 23 1 23 4
M  V30 24 1 24 5
M  V30 25 1 25 5
M  V30 26 1 26 5
M  V30 27 1 6 27 CFG=3
M  V30 28 1 28 7
M  V30 29 1 29 8
M  V30 30 1 30 8
M  V30 31 1 31 10
M  V30 32 1 32 10
M  V30 33 1 33 10
M  V30 34 1 34 11
M  V30 35 1 35 11
M  V30 36 1 36 13
M  V30 37 1 37 13
M  V30 38 1 38 14
M  V30 39 1 39 14
M  V30 40 1 40 14
M  V30 41 1 41 15
M  V30 42 1 42 15
M  V30 43 1 43 11
M  V30 44 1 9 44 CFG=3
M  V30 END BOND
M  V30 END CTAB
M  END
>  <i_epik_Tot_Q>  (1) 
2

>  <i_epik_Tot_abs_Q>  (1) 
2

>  <i_i_glide_confnum>  (1) 
4

>  <i_i_glide_lignum>  (1) 
22

>  <i_i_glide_posenum>  (1) 
347

>  <i_i_glide_rotatable_bonds>  (1) 
6

>  <i_lp_mmshare_version>  (1) 
72125

>  <i_m_source_file_index>  (1) 
12

>  <i_f3d_flags>  (1) 
0

>  <num_sample>  (1) 
100

>  <b_lp_Chiralities_Consistent>  (1) 
1

>  <r_epik_Charging_Adjusted_Penalty>  (1) 
0.13380573077515515

>  <r_epik_Ionization_Penalty>  (1) 
0.13380575400753034

>  <r_epik_Ionization_Penalty_Charging>  (1) 
0.0076430572427279801

>  <r_epik_Ionization_Penalty_Neutral>  (1) 
0.12616269676480235

>  <r_epik_State_Penalty>  (1) 
0.12616267353242716

>  <r_glide_ring_energy>  (1) 
0

>  <r_i_docking_score>  (1) 
-5.7791056799744984

>  <r_i_glide_ecoul>  (1) 
-7.3428941444135329

>  <r_i_glide_eff_state_penalty>  (1) 
0.12616267353242716

>  <r_i_glide_einternal>  (1) 
3.5804865508232204

>  <r_i_glide_emodel>  (1) 
-39.366662432601771

>  <r_i_glide_emodel_strain>  (1) 
0.66853706069275276

>  <r_i_glide_energy>  (1) 
-28.642486298196722

>  <r_i_glide_erotb>  (1) 
1.1639209444696645

>  <r_i_glide_esite>  (1) 
-0.10000000000000001

>  <r_i_glide_evdw>  (1) 
-21.299592153783188

>  <r_i_glide_gscore>  (1) 
-5.9052683535069255

>  <r_i_glide_gscore_strain>  (1) 
0

>  <r_i_glide_hbond>  (1) 
-0.20000000000000001

>  <r_i_glide_ligand_efficiency>  (1) 
-0.36119410499840615

>  <r_i_glide_ligand_efficiency_ln>  (1) 
-1.5318674007336401

>  <r_i_glide_ligand_efficiency_sa>  (1) 
-0.91015211197086188

>  <r_i_glide_lipo>  (1) 
-1.7295100968480646

>  <r_i_glide_metal>  (1) 
-0

>  <r_i_glide_rewards>  (1) 
-2.8732654717773363

>  <r_lp_Energy>  (1) 
22.875516999999999

>  <s_epik_Chemistry_Notes>  (1) 
This compound has an imine and may undergo hydrolysis.

>  <s_epik_cmdline>  (1) 
J2VwaWtfcHl0aG9uJywgJy1waHQnLCAnMS4wJywgJy1waCcsICc3LjQnLCAnLXRuJywgJzgnLCAnLW1hJywgJzUwMCcsICctaW1hZScsICc8aW5maWxlLm1hZT4nLCAnLW9tYWUnLCAnPG91dGZpbGUubWFlPic=

>  <s_epik_input>  (1) 
W0NIM11bQ0BASF0oW05IMl0pW0NIMl1TW0NIMl1bQ0gyXVtDQEhdMUMoW0NIM10pPVtDSF1OKFtDSDJdW0NIMl0xKVtDSDJdW0NIM10=

>  <s_glide_docking_method>  (1) 
confgen

>  <s_i_glide_gridfile>  (1) 
gpcr_drd2_6luq_protein_autoprepared_prepared

>  <s_lp_Force_Field>  (1) 
S-OPLS

>  <s_lp_Variant>  (1) 
DiffSBDD_11-2

>  <s_m_source_file>  (1) 
generated_generic_title2_ligand_DiffSBDD_2026-06-23_prepared.sdf

>  <GenAI_Model>  (1) 
DiffSBDD

>  <Protein>  (1) 
generic_title2

$$$$
DiffSBDD_68
     RDKit          3D

  0  0  0  0  0  0  0  0  0  0999 V3000
M  V30 BEGIN CTAB
M  V30 COUNTS 43 45 0 0 1
M  V30 BEGIN ATOM
M  V30 1 C 6.920144 5.131074 -18.936864 0
M  V30 2 C 7.175185 4.978951 -11.123438 0
M  V30 3 C 7.401003 6.118659 -20.012758 0
M  V30 4 C 6.900311 6.238928 -15.252049 0
M  V30 5 C 4.575411 6.934016 -18.870826 0
M  V30 6 N 7.867216 3.990227 -11.984842 0 CHG=1
M  V30 7 C 6.513702 5.819330 -17.642951 0
M  V30 8 C 6.421827 6.045616 -11.933489 0
M  V30 9 C 9.077426 4.483186 -12.677288 0
M  V30 10 F 6.791775 7.497873 -21.786778 0
M  V30 11 C 7.261110 5.592939 -16.466151 0
M  V30 12 C 6.258405 6.763859 -20.810880 0 CFG=2
M  V30 13 C 5.775411 7.104438 -15.241412 0
M  V30 14 C 5.330441 7.668827 -19.987294 0
M  V30 15 C 8.745894 5.040119 -14.074407 0
M  V30 16 N 7.659026 6.024041 -14.060818 0
M  V30 17 C 7.354598 6.821727 -12.869371 0
M  V30 18 C 5.395300 6.686421 -17.614101 0
M  V30 19 C 5.033689 7.322443 -16.413982 0
M  V30 20 H 7.731178 4.435444 -18.718270 0
M  V30 21 H 6.099406 4.515630 -19.306723 0
M  V30 22 H 7.888156 5.448266 -10.443208 0
M  V30 23 H 6.462219 4.445062 -10.493501 0
M  V30 24 H 8.049825 6.877989 -19.573680 0
M  V30 25 H 8.021733 5.569202 -20.721406 0
M  V30 26 H 4.175400 5.990228 -19.237755 0
M  V30 27 H 3.708612 7.536263 -18.595708 0
M  V30 28 H 8.161143 3.229268 -11.388732 0
M  V30 29 H 5.963789 6.745298 -11.232956 0
M  V30 30 H 5.596547 5.602232 -12.492320 0
M  V30 31 H 9.602153 5.217996 -12.065405 0
M  V30 32 H 9.767959 3.646116 -12.785026 0
M  V30 33 H 8.114201 4.936661 -16.503255 0
M  V30 34 H 5.674643 5.989190 -21.309928 0
M  V30 35 H 5.471790 7.598086 -14.335578 0
M  V30 36 H 5.866471 8.526413 -19.585049 0
M  V30 37 H 4.590765 8.083530 -20.673299 0
M  V30 38 H 8.457721 4.173423 -14.667387 0
M  V30 39 H 9.635121 5.471965 -14.535336 0
M  V30 40 H 8.284403 7.044412 -12.345222 0
M  V30 41 H 6.975511 7.814527 -13.094629 0
M  V30 42 H 4.179071 7.983209 -16.390767 0
M  V30 43 H 7.219744 3.635149 -12.673723 0
M  V30 END ATOM
M  V30 BEGIN BOND
M  V30 1 1 3 1
M  V30 2 1 6 2
M  V30 3 1 7 1
M  V30 4 1 8 2
M  V30 5 1 9 6
M  V30 6 2 11 4
M  V30 7 1 11 7
M  V30 8 1 12 3
M  V30 9 1 12 10
M  V30 10 1 13 4
M  V30 11 1 14 5
M  V30 12 1 14 12
M  V30 13 1 15 9
M  V30 14 1 16 4
M  V30 15 1 16 15
M  V30 16 1 17 8
M  V30 17 1 17 16
M  V30 18 1 18 5
M  V30 19 2 18 7
M  V30 20 2 19 13
M  V30 21 1 19 18
M  V30 22 1 20 1
M  V30 23 1 21 1
M  V30 24 1 22 2
M  V30 25 1 23 2
M  V30 26 1 24 3
M  V30 27 1 25 3
M  V30 28 1 26 5
M  V30 29 1 27 5
M  V30 30 1 28 6
M  V30 31 1 29 8
M  V30 32 1 30 8
M  V30 33 1 31 9
M  V30 34 1 32 9
M  V30 35 1 33 11
M  V30 36 1 12 34 CFG=3
M  V30 37 1 35 13
M  V30 38 1 36 14
M  V30 39 1 37 14
M  V30 40 1 38 15
M  V30 41 1 39 15
M  V30 42 1 40 17
M  V30 43 1 41 17
M  V30 44 1 42 19
M  V30 45 1 43 6
M  V30 END BOND
M  V30 END CTAB
M  END
>  <i_epik_Tot_Q>  (1) 
1

>  <i_epik_Tot_abs_Q>  (1) 
1

>  <i_i_glide_confnum>  (1) 
6

>  <i_i_glide_lignum>  (1) 
111

>  <i_i_glide_posenum>  (1) 
73

>  <i_i_glide_rotatable_bonds>  (1) 
1

>  <i_lp_mmshare_version>  (1) 
72125

>  <i_m_source_file_index>  (1) 
69

>  <i_f3d_flags>  (1) 
0

>  <num_sample>  (1) 
100

>  <b_lp_Chiralities_Consistent>  (1) 
1

>  <r_epik_Charging_Adjusted_Penalty>  (1) 
0.015837352336264428

>  <r_epik_Ionization_Penalty>  (1) 
0.015894229435383624

>  <r_epik_Ionization_Penalty_Charging>  (1) 
0.015837352336264428

>  <r_epik_Ionization_Penalty_Neutral>  (1) 
5.6877099119197507e-05

>  <r_epik_State_Penalty>  (1) 
-0

>  <r_glide_ring_energy>  (1) 
1.471982631355115

>  <r_i_docking_score>  (1) 
-5.7763282491276371

>  <r_i_glide_ecoul>  (1) 
-3.8144238204166681

>  <r_i_glide_eff_state_penalty>  (1) 
-0

>  <r_i_glide_einternal>  (1) 
0.92637016834343822

>  <r_i_glide_emodel>  (1) 
-40.228276051458643

>  <r_i_glide_emodel_strain>  (1) 
0.29506177342988593

>  <r_i_glide_energy>  (1) 
-28.448691925381951

>  <r_i_glide_erotb>  (1) 
0.25598708870304271

>  <r_i_glide_esite>  (1) 
0

>  <r_i_glide_evdw>  (1) 
-24.634268104965283

>  <r_i_glide_gscore>  (1) 
-5.7763282491276371

>  <r_i_glide_gscore_strain>  (1) 
0

>  <r_i_glide_hbond>  (1) 
0

>  <r_i_glide_ligand_efficiency>  (1) 
-0.30401727626987562

>  <r_i_glide_ligand_efficiency_ln>  (1) 
-1.4644232753090585

>  <r_i_glide_ligand_efficiency_sa>  (1) 
-0.81124020123849128

>  <r_i_glide_lipo>  (1) 
-2.0850767094661689

>  <r_i_glide_metal>  (1) 
-0

>  <r_i_glide_rewards>  (1) 
-2.1433616500537451

>  <r_lp_Energy>  (1) 
46.335602999999999

>  <r_lp_tautomer_probability>  (1) 
1

>  <s_epik_cmdline>  (1) 
J2VwaWtfcHl0aG9uJywgJy1waHQnLCAnMS4wJywgJy1waCcsICc3LjQnLCAnLXRuJywgJzgnLCAnLW1hJywgJzUwMCcsICctaW1hZScsICc8aW5maWxlLm1hZT4nLCAnLW9tYWUnLCAnPG91dGZpbGUubWFlPic=

>  <s_epik_input>  (1) 
W0NIMl0xW0NIMl1bQ0BIXShGKVtDSDJdW0NIMl1jKGMxMilbY0hdW2NIXWMoW2NIXTIpTjNbQ0gyXVtDSDJdW05IXVtDSDJdW0NIMl1bQ0gyXTM=

>  <s_glide_docking_method>  (1) 
confgen

>  <s_i_glide_gridfile>  (1) 
gpcr_drd2_6luq_protein_autoprepared_prepared

>  <s_lp_Force_Field>  (1) 
S-OPLS

>  <s_lp_Variant>  (1) 
DiffSBDD_68-1

>  <s_m_source_file>  (1) 
generated_generic_title2_ligand_DiffSBDD_2026-06-23_prepared.sdf

>  <GenAI_Model>  (1) 
DiffSBDD

>  <Protein>  (1) 
generic_title2

$$$$
DiffSBDD_67
     RDKit          3D

  0  0  0  0  0  0  0  0  0  0999 V3000
M  V30 BEGIN CTAB
M  V30 COUNTS 67 69 0 0 1
M  V30 BEGIN ATOM
M  V30 1 C 10.824420 7.467888 -8.478572 0
M  V30 2 C 8.848378 5.795239 -11.270235 0
M  V30 3 C 9.319864 8.065417 -6.603664 0
M  V30 4 C 7.660578 3.033185 -15.148817 0
M  V30 5 F 12.849099 8.739378 -8.530049 0
M  V30 6 C 8.206493 5.227016 -17.232066 0
M  V30 7 C 6.479440 6.395809 -19.818686 0
M  V30 8 C 4.573642 7.999379 -19.364473 0
M  V30 9 C 7.107564 4.544825 -18.087670 0 CFG=2
M  V30 10 C 5.319326 6.362917 -17.578680 0
M  V30 11 C 10.966294 7.190232 -11.278439 0
M  V30 12 C 9.896652 6.593889 -10.565435 0
M  V30 13 C 4.146929 7.170278 -18.141972 0
M  V30 14 C 8.078623 3.193047 -12.771992 0
M  V30 15 C 11.961510 7.910953 -10.581286 0
M  V30 16 C 7.739478 3.664039 -19.180580 0
M  V30 17 C 11.890522 8.047574 -9.189055 0
M  V30 18 C 8.047858 4.587978 -13.413918 0 CFG=2
M  V30 19 C 7.774315 2.191483 -13.881581 0
M  V30 20 O 7.883971 5.288031 -10.698815 0
M  V30 21 C 9.828769 6.738249 -9.167350 0
M  V30 22 N 8.290730 4.341179 -14.853359 0 CFG=2 CHG=1
M  V30 23 F 8.975280 9.081799 -7.381295 0
M  V30 24 C 11.173373 6.384353 -6.224203 0
M  V30 25 C 7.856358 5.448342 -15.739071 0
M  V30 26 C 10.736439 7.640410 -6.976003 0
M  V30 27 C 6.012769 5.494723 -18.654446 0
M  V30 28 C 9.035766 5.604448 -12.785838 0
M  V30 29 F 11.242120 6.621697 -4.913883 0
M  V30 30 C 5.289608 7.154432 -20.424643 0
M  V30 31 H 8.574704 7.279934 -6.729060 0
M  V30 32 H 9.277854 8.405001 -5.585076 0
M  V30 33 H 8.113741 2.543055 -16.011167 0
M  V30 34 H 6.599800 3.178983 -15.356949 0
M  V30 35 H 8.445645 6.181425 -17.697211 0
M  V30 36 H 9.137404 4.660741 -17.286935 0
M  V30 37 H 7.230692 7.105948 -19.472465 0
M  V30 38 H 6.950805 5.809720 -20.607339 0
M  V30 39 H 3.705642 8.494068 -19.800212 0
M  V30 40 H 5.249594 8.790264 -19.041911 0
M  V30 41 H 6.575410 3.842081 -17.456202 0
M  V30 42 H 4.945077 5.739107 -16.767997 0
M  V30 43 H 6.033625 7.063527 -17.146457 0
M  V30 44 H 11.034406 7.090082 -12.350465 0
M  V30 45 H 3.337617 6.486771 -18.385000 0
M  V30 46 H 3.748829 7.830697 -17.371004 0
M  V30 47 H 9.056112 2.973976 -12.337656 0
M  V30 48 H 7.327485 3.149269 -11.985104 0
M  V30 49 H 12.781887 8.359797 -11.122424 0
M  V30 50 H 8.407234 4.233710 -19.827447 0
M  V30 51 H 8.327885 2.858935 -18.740535 0
M  V30 52 H 6.976931 3.200097 -19.806951 0
M  V30 53 H 7.031815 4.973758 -13.312963 0
M  V30 54 H 8.575377 1.456822 -13.963212 0
M  V30 55 H 6.851081 1.644646 -13.685773 0
M  V30 56 H 9.012070 6.288826 -8.621489 0
M  V30 57 H 10.450437 5.590259 -6.382034 0
M  V30 58 H 12.155052 6.032504 -6.542850 0
M  V30 59 H 6.796491 5.622614 -15.579503 0
M  V30 60 H 8.352720 6.356084 -15.402852 0
M  V30 61 H 11.401591 8.453112 -6.683499 0
M  V30 62 H 5.243330 4.839428 -19.067310 0
M  V30 63 H 8.916706 6.583084 -13.247868 0
M  V30 64 H 10.056383 5.268384 -12.972688 0
M  V30 65 H 4.588352 6.446737 -20.868393 0
M  V30 66 H 5.635865 7.795933 -21.235210 0
M  V30 67 H 9.287602 4.223299 -14.964688 0
M  V30 END ATOM
M  V30 BEGIN BOND
M  V30 1 1 9 6
M  V30 2 1 12 2
M  V30 3 1 12 11
M  V30 4 1 13 8
M  V30 5 1 13 10
M  V30 6 2 15 11
M  V30 7 1 16 9
M  V30 8 2 17 1
M  V30 9 1 17 5
M  V30 10 1 17 15
M  V30 11 1 18 14
M  V30 12 1 19 4
M  V30 13 1 19 14
M  V30 14 2 20 2
M  V30 15 1 21 1
M  V30 16 2 21 12
M  V30 17 1 22 4
M  V30 18 1 22 18
M  V30 19 1 23 3
M  V30 20 1 25 6
M  V30 21 1 25 22
M  V30 22 1 26 1
M  V30 23 1 26 3
M  V30 24 1 26 24
M  V30 25 1 27 7
M  V30 26 1 27 9
M  V30 27 1 27 10
M  V30 28 1 28 2
M  V30 29 1 28 18
M  V30 30 1 29 24
M  V30 31 1 30 7
M  V30 32 1 30 8
M  V30 33 1 31 3
M  V30 34 1 32 3
M  V30 35 1 33 4
M  V30 36 1 34 4
M  V30 37 1 35 6
M  V30 38 1 36 6
M  V30 39 1 37 7
M  V30 40 1 38 7
M  V30 41 1 39 8
M  V30 42 1 40 8
M  V30 43 1 9 41 CFG=1
M  V30 44 1 42 10
M  V30 45 1 43 10
M  V30 46 1 44 11
M  V30 47 1 45 13
M  V30 48 1 46 13
M  V30 49 1 47 14
M  V30 50 1 48 14
M  V30 51 1 49 15
M  V30 52 1 50 16
M  V30 53 1 51 16
M  V30 54 1 52 16
M  V30 55 1 18 53 CFG=3
M  V30 56 1 54 19
M  V30 57 1 55 19
M  V30 58 1 56 21
M  V30 59 1 57 24
M  V30 60 1 58 24
M  V30 61 1 59 25
M  V30 62 1 60 25
M  V30 63 1 61 26
M  V30 64 1 62 27
M  V30 65 1 63 28
M  V30 66 1 64 28
M  V30 67 1 65 30
M  V30 68 1 66 30
M  V30 69 1 22 67 CFG=1
M  V30 END BOND
M  V30 END CTAB
M  END
>  <i_epik_Tot_Q>  (1) 
1

>  <i_epik_Tot_abs_Q>  (1) 
1

>  <i_i_glide_confnum>  (1) 
151

>  <i_i_glide_lignum>  (1) 
110

>  <i_i_glide_posenum>  (1) 
43

>  <i_i_glide_rotatable_bonds>  (1) 
10

>  <i_lp_mmshare_version>  (1) 
72125

>  <i_m_source_file_index>  (1) 
68

>  <i_f3d_flags>  (1) 
0

>  <num_sample>  (1) 
100

>  <b_lp_Chiralities_Consistent>  (1) 
1

>  <r_epik_Charging_Adjusted_Penalty>  (1) 
0.0091991127420811905

>  <r_epik_Ionization_Penalty>  (1) 
0.0045995563710408641

>  <r_epik_Ionization_Penalty_Charging>  (1) 
0.0045995563710406013

>  <r_epik_Ionization_Penalty_Neutral>  (1) 
2.6311653613664267e-16

>  <r_epik_State_Penalty>  (1) 
0.0045995563710405883

>  <r_glide_ring_energy>  (1) 
0

>  <r_i_docking_score>  (1) 
-5.7758597751977314

>  <r_i_glide_ecoul>  (1) 
-1.8885018320760247

>  <r_i_glide_eff_state_penalty>  (1) 
0.0045995563710405883

>  <r_i_glide_einternal>  (1) 
11.507635868334116

>  <r_i_glide_emodel>  (1) 
-32.248579403275158

>  <r_i_glide_emodel_strain>  (1) 
0.059687684277619724

>  <r_i_glide_energy>  (1) 
-28.396159337063835

>  <r_i_glide_erotb>  (1) 
0.77002039440311598

>  <r_i_glide_esite>  (1) 
-0.057297823473407533

>  <r_i_glide_evdw>  (1) 
-26.507657504987812

>  <r_i_glide_gscore>  (1) 
-5.780459331568772

>  <r_i_glide_gscore_strain>  (1) 
0

>  <r_i_glide_hbond>  (1) 
0

>  <r_i_glide_ligand_efficiency>  (1) 
-0.1925286591732577

>  <r_i_glide_ligand_efficiency_ln>  (1) 
-1.3123382739577156

>  <r_i_glide_ligand_efficiency_sa>  (1) 
-0.59823130811085801

>  <r_i_glide_lipo>  (1) 
-2.6871619034691814

>  <r_i_glide_metal>  (1) 
-0

>  <r_i_glide_rewards>  (1) 
-2.1973618489685043

>  <r_lp_Energy>  (1) 
29.482433999999998

>  <r_lp_tautomer_probability>  (1) 
0.99990000499974985

>  <s_epik_cmdline>  (1) 
J2VwaWtfcHl0aG9uJywgJy1waHQnLCAnMS4wJywgJy1waCcsICc3LjQnLCAnLXRuJywgJzgnLCAnLW1hJywgJzUwMCcsICctaW1hZScsICc8aW5maWxlLm1hZT4nLCAnLW9tYWUnLCAnPG91dGZpbGUubWFlPic=

>  <s_epik_input>  (1) 
RltDSDJdW0NIXShbQ0gyXUYpYzFjKEYpW2NIXVtjSF1jKFtjSF0xKUMoPU8pW0NIMl1bQ0BASF0yW0NIMl1bQ0gyXVtDSDJdTjJbQ0gyXVtDSDJdW0NASF0oW0NIM10pW0NIXTNbQ0gyXVtDSDJdW0NIMl1bQ0gyXVtDSDJdMw==

>  <s_glide_docking_method>  (1) 
confgen

>  <s_i_glide_gridfile>  (1) 
gpcr_drd2_6luq_protein_autoprepared_prepared

>  <s_lp_Force_Field>  (1) 
S-OPLS

>  <s_lp_Variant>  (1) 
DiffSBDD_67-2

>  <s_m_source_file>  (1) 
generated_generic_title2_ligand_DiffSBDD_2026-06-23_prepared.sdf

>  <GenAI_Model>  (1) 
DiffSBDD

>  <Protein>  (1) 
generic_title2

$$$$
DiffSBDD_81
     RDKit          3D

  0  0  0  0  0  0  0  0  0  0999 V3000
M  V30 BEGIN CTAB
M  V30 COUNTS 67 70 0 0 1
M  V30 BEGIN ATOM
M  V30 1 C 8.187603 4.815927 -12.373060 0 CFG=1
M  V30 2 C 11.562309 7.278757 -6.087625 0
M  V30 3 O 12.179078 9.990277 -5.211158 0
M  V30 4 C 12.155712 9.512973 -3.885529 0
M  V30 5 C 6.915730 2.995288 -13.746162 0
M  V30 6 C 6.679651 1.098634 -15.116840 0
M  V30 7 C 6.379382 1.728615 -13.869002 0
M  V30 8 C 9.370232 3.855543 -12.072130 0
M  V30 9 O 12.575388 6.292470 -1.985081 0
M  V30 10 O 5.784678 4.917004 -12.844680 0
M  V30 11 C 9.220264 6.497303 -10.624331 0 CFG=2
M  V30 12 C 6.145946 -0.510829 -16.840422 0
M  V30 13 C 8.619678 4.674707 -15.589336 0 CFG=1
M  V30 14 C 7.975519 5.739466 -11.156114 0
M  V30 15 C 7.974280 3.204408 -15.693271 0
M  V30 16 O 12.975320 8.465539 -1.424197 0
M  V30 17 N 8.470384 5.724296 -13.503762 0
M  V30 18 C 10.888284 5.990362 -4.240836 0
M  V30 19 C 7.636392 3.399380 -14.834042 0
M  V30 20 C 12.275767 7.971695 -3.745253 0 CFG=1
M  V30 21 O 9.375330 5.078774 -14.452096 0
M  V30 22 C 6.850139 4.014568 -12.625234 0 CFG=2
M  V30 23 C 9.433918 6.185608 -9.133695 0
M  V30 24 C 7.517931 1.861486 -16.062934 0
M  V30 25 C 10.328037 7.289097 -6.960352 0 CFG=2
M  V30 26 C 10.460310 7.057987 -8.448982 0 CFG=2
M  V30 27 O 8.975382 7.872228 -10.785062 0
M  V30 28 O 4.907704 -0.409761 -14.896109 0
M  V30 29 C 10.104291 8.424602 -7.925791 0
M  V30 30 C 12.173206 7.620832 -2.215620 0
M  V30 31 N 6.184534 -0.183750 -15.420058 0
M  V30 32 N 11.277779 7.314406 -4.642236 0
M  V30 33 H 12.135500 6.381168 -6.327794 0
M  V30 34 H 12.175206 8.097461 -6.434795 0
M  V30 35 H 11.859536 10.879876 -5.224396 0
M  V30 36 H 11.230017 9.859860 -3.423988 0
M  V30 37 H 12.981966 9.990115 -3.366429 0
M  V30 38 H 5.779216 1.264099 -13.099922 0
M  V30 39 H 9.261405 3.400412 -11.088498 0
M  V30 40 H 9.444563 3.039504 -12.785180 0
M  V30 41 H 10.330417 4.369729 -12.079542 0
M  V30 42 H 11.891429 5.712840 -2.284452 0
M  V30 43 H 6.071025 5.513895 -13.520179 0
M  V30 44 H 10.129899 6.286389 -11.182515 0
M  V30 45 H 7.152573 -0.674077 -17.225265 0
M  V30 46 H 5.588195 -1.434691 -17.008743 0
M  V30 47 H 5.663656 0.276093 -17.422852 0
M  V30 48 H 7.961534 5.453135 -15.973354 0
M  V30 49 H 7.175471 6.452364 -11.369218 0
M  V30 50 H 7.566973 5.129842 -10.348923 0
M  V30 51 H 12.675157 9.359447 -1.493499 0
M  V30 52 H 8.992776 6.515999 -13.151364 0
M  V30 53 H 10.392644 5.990288 -3.269962 0
M  V30 54 H 10.175270 5.590469 -4.949776 0
M  V30 55 H 11.763290 5.346562 -4.228725 0
M  V30 56 H 13.288244 7.668213 -3.985029 0
M  V30 57 H 6.589185 3.462563 -11.721805 0
M  V30 58 H 8.490983 6.291321 -8.594938 0
M  V30 59 H 9.739521 5.144456 -9.018861 0
M  V30 60 H 7.786302 1.444074 -17.021387 0
M  V30 61 H 9.426919 6.886374 -6.502655 0
M  V30 62 H 11.467782 6.958505 -8.848859 0
M  V30 63 H 8.145167 8.020129 -10.299795 0
M  V30 64 H 4.992372 -1.140908 -14.279236 0
M  V30 65 H 10.875757 9.189811 -7.993820 0
M  V30 66 H 9.081875 8.778285 -8.046223 0
M  V30 67 H 11.152849 7.735576 -1.852561 0
M  V30 END ATOM
M  V30 BEGIN BOND
M  V30 1 1 4 3
M  V30 2 2 7 5
M  V30 3 1 7 6
M  V30 4 1 1 8 CFG=1
M  V30 5 1 14 1
M  V30 6 1 14 11
M  V30 7 1 15 13
M  V30 8 1 17 1
M  V30 9 1 19 5
M  V30 10 1 19 13
M  V30 11 2 19 15
M  V30 12 1 20 4
M  V30 13 1 21 13
M  V30 14 1 21 17
M  V30 15 1 22 1
M  V30 16 1 22 5
M  V30 17 1 22 10
M  V30 18 1 23 11
M  V30 19 2 24 6
M  V30 20 1 24 15
M  V30 21 1 25 2
M  V30 22 1 26 23
M  V30 23 1 26 25
M  V30 24 1 27 11
M  V30 25 1 29 25
M  V30 26 1 29 26
M  V30 27 1 30 9
M  V30 28 1 30 16
M  V30 29 1 30 20
M  V30 30 1 31 6
M  V30 31 1 31 12
M  V30 32 1 31 28
M  V30 33 1 32 2
M  V30 34 1 32 18
M  V30 35 1 32 20
M  V30 36 1 33 2
M  V30 37 1 34 2
M  V30 38 1 35 3
M  V30 39 1 36 4
M  V30 40 1 37 4
M  V30 41 1 38 7
M  V30 42 1 39 8
M  V30 43 1 40 8
M  V30 44 1 41 8
M  V30 45 1 42 9
M  V30 46 1 43 10
M  V30 47 1 11 44 CFG=3
M  V30 48 1 45 12
M  V30 49 1 46 12
M  V30 50 1 47 12
M  V30 51 1 13 48 CFG=3
M  V30 52 1 49 14
M  V30 53 1 50 14
M  V30 54 1 51 16
M  V30 55 1 52 17
M  V30 56 1 53 18
M  V30 57 1 54 18
M  V30 58 1 55 18
M  V30 59 1 20 56 CFG=3
M  V30 60 1 22 57 CFG=1
M  V30 61 1 58 23
M  V30 62 1 59 23
M  V30 63 1 60 24
M  V30 64 1 25 61 CFG=1
M  V30 65 1 26 62 CFG=1
M  V30 66 1 63 27
M  V30 67 1 64 28
M  V30 68 1 65 29
M  V30 69 1 66 29
M  V30 70 1 67 30
M  V30 END BOND
M  V30 END CTAB
M  END
>  <i_epik_Tot_Q>  (1) 
0

>  <i_epik_Tot_abs_Q>  (1) 
0

>  <i_i_glide_confnum>  (1) 
3917

>  <i_i_glide_lignum>  (1) 
145

>  <i_i_glide_posenum>  (1) 
124

>  <i_i_glide_rotatable_bonds>  (1) 
16

>  <i_lp_mmshare_version>  (1) 
72125

>  <i_m_source_file_index>  (1) 
82

>  <i_f3d_flags>  (1) 
0

>  <num_sample>  (1) 
100

>  <b_lp_Chiralities_Consistent>  (1) 
1

>  <r_epik_Charging_Adjusted_Penalty>  (1) 
0.53465553772288132

>  <r_epik_Ionization_Penalty>  (1) 
0.53502174055569018

>  <r_epik_Ionization_Penalty_Charging>  (1) 
0

>  <r_epik_Ionization_Penalty_Neutral>  (1) 
0.53502174055569018

>  <r_epik_State_Penalty>  (1) 
0.53465553772288132

>  <r_glide_ring_energy>  (1) 
0

>  <r_i_docking_score>  (1) 
-5.7670814264056238

>  <r_i_glide_ecoul>  (1) 
-13.336054778330519

>  <r_i_glide_eff_state_penalty>  (1) 
0.53465553772288132

>  <r_i_glide_einternal>  (1) 
18.613881670251935

>  <r_i_glide_emodel>  (1) 
-43.250079346915697

>  <r_i_glide_emodel_strain>  (1) 
5.7881040721849786

>  <r_i_glide_energy>  (1) 
-44.113342949729258

>  <r_i_glide_erotb>  (1) 
0.97589078675502272

>  <r_i_glide_esite>  (1) 
-0.010840354193886157

>  <r_i_glide_evdw>  (1) 
-30.777288171398737

>  <r_i_glide_gscore>  (1) 
-6.301736964128505

>  <r_i_glide_gscore_strain>  (1) 
0.44702601804624464

>  <r_i_glide_hbond>  (1) 
-0.33767455665855883

>  <r_i_glide_ligand_efficiency>  (1) 
-0.18022129457517574

>  <r_i_glide_ligand_efficiency_ln>  (1) 
-1.2914067360745711

>  <r_i_glide_ligand_efficiency_sa>  (1) 
-0.57216694519140954

>  <r_i_glide_lipo>  (1) 
-2.3743099171960913

>  <r_i_glide_metal>  (1) 
-0

>  <r_i_glide_rewards>  (1) 
-1.4625563155617212

>  <r_lp_Energy>  (1) 
74.761414000000002

>  <s_epik_Chemistry_Notes>  (1) 
This compound contains an acetal/aminal-like group ( X-CH(R)-Y where X, Y are N, S, or O) that may be acid/base labile, releasing an aldehyde. This compound has a N-S or N-O group and may undergo hydrolysis at high or low pH.

>  <s_epik_cmdline>  (1) 
J2VwaWtfcHl0aG9uJywgJy1waHQnLCAnMS4wJywgJy1waCcsICc3LjQnLCAnLXRuJywgJzgnLCAnLW1hJywgJzUwMCcsICctaW1hZScsICc8aW5maWxlLm1hZT4nLCAnLW9tYWUnLCAnPG91dGZpbGUubWFlPic=

>  <s_epik_input>  (1) 
W0NIM11OKFtPSF0pYyhbY0hdMSlbY0hdYyhjMmMxMylbQ0BASF0yT1tOSF1bQ0BdKFtDSDNdKShbQ0BIXTNbT0hdKVtDSDJdW0NAQEhdKFtPSF0pW0NIMl1bQ0BASF0oW0NIMl00KVtDQEhdNFtDSDJdTihbQ0gzXSlbQ0BASF0oW0NIMl1bT0hdKVtDSF0oW09IXSlbT0hd

>  <s_glide_docking_method>  (1) 
confgen

>  <s_i_glide_gridfile>  (1) 
gpcr_drd2_6luq_protein_autoprepared_prepared

>  <s_lp_Force_Field>  (1) 
S-OPLS

>  <s_lp_Variant>  (1) 
DiffSBDD_81-3

>  <s_m_source_file>  (1) 
generated_generic_title2_ligand_DiffSBDD_2026-06-23_prepared.sdf

>  <GenAI_Model>  (1) 
DiffSBDD

>  <Protein>  (1) 
generic_title2

$$$$
DiffSBDD_51
     RDKit          3D

  0  0  0  0  0  0  0  0  0  0999 V3000
M  V30 BEGIN CTAB
M  V30 COUNTS 67 70 0 0 1
M  V30 BEGIN ATOM
M  V30 1 C 9.360563 7.679657 -6.384954 0
M  V30 2 C 8.722071 6.774190 -11.660006 0
M  V30 3 C 9.806238 7.101155 -8.805701 0
M  V30 4 C 10.159669 6.432630 -11.240235 0 CFG=1
M  V30 5 C 5.542990 6.789853 -19.872531 0
M  V30 6 N 4.546156 7.485034 -21.985138 0
M  V30 7 C 6.858200 3.917169 -14.632560 0
M  V30 8 N 8.068865 5.871138 -12.619198 0
M  V30 9 C 7.466104 3.632777 -18.941221 0
M  V30 10 C 10.205402 7.773644 -7.634933 0
M  V30 11 C 6.690217 4.634696 -19.725823 0
M  V30 12 C 5.660121 5.331895 -21.828828 0
M  V30 13 C 6.381055 4.381477 -21.079909 0
M  V30 14 C 6.900664 6.444499 -13.276954 0 CFG=2
M  V30 15 C 5.441178 6.105027 -11.446280 0
M  V30 16 N 6.975426 4.938270 -16.873227 0
M  V30 17 C 11.100208 6.567279 -12.452955 0
M  V30 18 C 8.340622 4.489634 -12.653962 0
M  V30 19 C 7.958058 4.073740 -17.553584 0 CFG=2
M  V30 20 C 6.260957 5.840691 -19.117534 0
M  V30 21 C 11.777906 7.955938 -9.966194 0
M  V30 22 O 7.735454 2.513932 -19.378338 0
M  V30 23 C 6.579014 6.125703 -17.657648 0
M  V30 24 C 4.134665 8.684624 -21.531547 0
M  V30 25 N 3.775602 9.728098 -21.185260 0
M  V30 26 O 5.697651 5.899732 -12.833004 0
M  V30 27 N 7.187585 5.087825 -15.451414 0
M  V30 28 C 11.391900 8.530770 -7.628401 0
M  V30 29 C 9.346524 4.738588 -17.655339 0
M  V30 30 C 10.589433 7.190222 -9.977894 0
M  V30 31 C 7.812659 3.588958 -13.508462 0
M  V30 32 C 12.176572 8.618247 -8.792330 0
M  V30 33 C 6.975210 6.401773 -14.813257 0
M  V30 34 C 5.245826 6.539036 -21.230209 0
M  V30 35 H 9.987569 7.672413 -5.494066 0
M  V30 36 H 8.761234 6.768020 -6.385768 0
M  V30 37 H 8.679040 8.528780 -6.332446 0
M  V30 38 H 8.710920 7.796639 -12.040112 0
M  V30 39 H 8.088019 6.781473 -10.784957 0
M  V30 40 H 8.898991 6.513860 -8.804449 0
M  V30 41 H 10.175378 5.408468 -10.890792 0
M  V30 42 H 5.223752 7.712498 -19.409586 0
M  V30 43 H 4.373760 7.246605 -22.951454 0
M  V30 44 H 5.838938 3.994619 -14.257160 0
M  V30 45 H 6.850406 3.034274 -15.270621 0
M  V30 46 H 5.431111 5.136637 -22.866413 0
M  V30 47 H 6.701291 3.460497 -21.546292 0
M  V30 48 H 6.850207 7.496304 -12.990115 0
M  V30 49 H 4.526768 5.600052 -11.164565 0
M  V30 50 H 5.337771 7.164248 -11.207413 0
M  V30 51 H 6.209769 5.670511 -10.808243 0
M  V30 52 H 12.121562 6.258050 -12.237758 0
M  V30 53 H 11.122974 7.590208 -12.810568 0
M  V30 54 H 10.751376 5.966537 -13.291035 0
M  V30 55 H 9.031802 4.169567 -11.899029 0
M  V30 56 H 8.082024 3.167328 -16.962654 0
M  V30 57 H 12.389980 8.027479 -10.850289 0
M  V30 58 H 5.686909 6.571703 -17.219138 0
M  V30 59 H 7.374982 6.864371 -17.626624 0
M  V30 60 H 11.701732 9.043402 -6.729572 0
M  V30 61 H 10.070993 4.061783 -18.109423 0
M  V30 62 H 9.728926 5.004335 -16.669119 0
M  V30 63 H 9.325005 5.646238 -18.258468 0
M  V30 64 H 8.097452 2.550727 -13.416164 0
M  V30 65 H 13.089562 9.190214 -8.784747 0
M  V30 66 H 6.035006 6.829336 -15.156826 0
M  V30 67 H 7.775072 7.069529 -15.126411 0
M  V30 END ATOM
M  V30 BEGIN BOND
M  V30 1 1 4 2
M  V30 2 1 8 2
M  V30 3 1 10 1
M  V30 4 2 10 3
M  V30 5 1 11 9
M  V30 6 1 13 11
M  V30 7 2 13 12
M  V30 8 1 14 8
M  V30 9 1 17 4
M  V30 10 1 18 8
M  V30 11 1 19 9
M  V30 12 1 19 16
M  V30 13 1 20 5
M  V30 14 2 20 11
M  V30 15 2 22 9
M  V30 16 1 23 16
M  V30 17 1 23 20
M  V30 18 1 24 6
M  V30 19 3 25 24
M  V30 20 1 26 14
M  V30 21 1 26 15
M  V30 22 1 27 7
M  V30 23 1 27 16
M  V30 24 1 28 10
M  V30 25 1 29 19
M  V30 26 1 30 3
M  V30 27 1 30 4
M  V30 28 2 30 21
M  V30 29 1 31 7
M  V30 30 2 31 18
M  V30 31 1 32 21
M  V30 32 2 32 28
M  V30 33 1 33 14
M  V30 34 1 33 27
M  V30 35 2 34 5
M  V30 36 1 34 6
M  V30 37 1 34 12
M  V30 38 1 35 1
M  V30 39 1 36 1
M  V30 40 1 37 1
M  V30 41 1 38 2
M  V30 42 1 39 2
M  V30 43 1 40 3
M  V30 44 1 4 41 CFG=1
M  V30 45 1 42 5
M  V30 46 1 43 6
M  V30 47 1 44 7
M  V30 48 1 45 7
M  V30 49 1 46 12
M  V30 50 1 47 13
M  V30 51 1 14 48 CFG=3
M  V30 52 1 49 15
M  V30 53 1 50 15
M  V30 54 1 51 15
M  V30 55 1 52 17
M  V30 56 1 53 17
M  V30 57 1 54 17
M  V30 58 1 55 18
M  V30 59 1 19 56 CFG=1
M  V30 60 1 57 21
M  V30 61 1 58 23
M  V30 62 1 59 23
M  V30 63 1 60 28
M  V30 64 1 61 29
M  V30 65 1 62 29
M  V30 66 1 63 29
M  V30 67 1 64 31
M  V30 68 1 65 32
M  V30 69 1 66 33
M  V30 70 1 67 33
M  V30 END BOND
M  V30 END CTAB
M  END
>  <i_epik_Tot_Q>  (1) 
0

>  <i_epik_Tot_abs_Q>  (1) 
0

>  <i_i_glide_confnum>  (1) 
6

>  <i_i_glide_lignum>  (1) 
81

>  <i_i_glide_posenum>  (1) 
390

>  <i_i_glide_rotatable_bonds>  (1) 
6

>  <i_lp_mmshare_version>  (1) 
72125

>  <i_m_source_file_index>  (1) 
52

>  <i_f3d_flags>  (1) 
0

>  <num_sample>  (1) 
100

>  <b_lp_Chiralities_Consistent>  (1) 
1

>  <r_epik_Charging_Adjusted_Penalty>  (1) 
7.4502254237452924e-08

>  <r_epik_Ionization_Penalty>  (1) 
0.00022335133816854321

>  <r_epik_Ionization_Penalty_Charging>  (1) 
7.4502254237452924e-08

>  <r_epik_Ionization_Penalty_Neutral>  (1) 
0.00022327683591430577

>  <r_epik_State_Penalty>  (1) 
-0

>  <r_glide_ring_energy>  (1) 
0

>  <r_i_docking_score>  (1) 
-5.7665394362612004

>  <r_i_glide_ecoul>  (1) 
-2.2439908598691205

>  <r_i_glide_eff_state_penalty>  (1) 
-0

>  <r_i_glide_einternal>  (1) 
3.7723833337388184

>  <r_i_glide_emodel>  (1) 
-49.402360033820088

>  <r_i_glide_emodel_strain>  (1) 
2.7887633393201341

>  <r_i_glide_energy>  (1) 
-41.631998468369218

>  <r_i_glide_erotb>  (1) 
0.47630443723403276

>  <r_i_glide_esite>  (1) 
-0.011955416821997897

>  <r_i_glide_evdw>  (1) 
-39.388007608500097

>  <r_i_glide_gscore>  (1) 
-5.7665394362612004

>  <r_i_glide_gscore_strain>  (1) 
0

>  <r_i_glide_hbond>  (1) 
0

>  <r_i_glide_ligand_efficiency>  (1) 
-0.16960410106650589

>  <r_i_glide_ligand_efficiency_ln>  (1) 
-1.2739903074225858

>  <r_i_glide_ligand_efficiency_sa>  (1) 
-0.54945144736011153

>  <r_i_glide_lipo>  (1) 
-2.1913310976924745

>  <r_i_glide_metal>  (1) 
-0

>  <r_i_glide_rewards>  (1) 
-1.7335583495753872

>  <r_lp_Energy>  (1) 
50.225366999999999

>  <r_lp_tautomer_probability>  (1) 
1

>  <s_epik_Chemistry_Notes>  (1) 
This compound has an imine and may undergo hydrolysis. This compound contains an acetal/aminal-like group ( X-CH(R)-Y where X, Y are N, S, or O) that may be acid/base labile, releasing an aldehyde.

>  <s_epik_cmdline>  (1) 
J2VwaWtfcHl0aG9uJywgJy1waHQnLCAnMS4wJywgJy1waCcsICc3LjQnLCAnLXRuJywgJzgnLCAnLW1hJywgJzUwMCcsICctaW1hZScsICc8aW5maWxlLm1hZT4nLCAnLW9tYWUnLCAnPG91dGZpbGUubWFlPic=

>  <s_epik_input>  (1) 
W0NIM11jMVtjSF1jKFtjSF1bY0hdW2NIXTEpW0NASF0oW0NIM10pW0NIMl1OMltDQEBIXShPW0NIM10pW0NIMl1OKFtDSDJdW0NIXT1bQ0hdMilOKFtDQEBIXShDMz1PKVtDSDNdKVtDSDJdYyhjMzQpW2NIXWMoW05IXUMjTilbY0hdW2NIXTQ=

>  <s_glide_docking_method>  (1) 
confgen

>  <s_i_glide_gridfile>  (1) 
gpcr_drd2_6luq_protein_autoprepared_prepared

>  <s_lp_Force_Field>  (1) 
S-OPLS

>  <s_lp_Variant>  (1) 
DiffSBDD_51-2

>  <s_m_source_file>  (1) 
generated_generic_title2_ligand_DiffSBDD_2026-06-23_prepared.sdf

>  <GenAI_Model>  (1) 
DiffSBDD

>  <Protein>  (1) 
generic_title2

$$$$
DiffSBDD_14
     RDKit          3D

  0  0  0  0  0  0  0  0  0  0999 V3000
M  V30 BEGIN CTAB
M  V30 COUNTS 47 48 0 0 1
M  V30 BEGIN ATOM
M  V30 1 N 9.775379 6.963689 -10.150570 0
M  V30 2 C 8.147802 3.755703 -12.949854 0
M  V30 3 N 8.569813 4.149480 -11.589109 0 CHG=1
M  V30 4 C 11.158880 9.285294 -5.556755 0
M  V30 5 C 9.532086 6.389279 -11.379112 0
M  V30 6 C 7.611966 5.014963 -13.638005 0
M  V30 7 C 11.136647 8.412961 -8.724742 0
M  V30 8 C 5.769923 5.534888 -12.006892 0
M  V30 9 C 11.775404 9.126256 -4.302496 0
M  V30 10 C 10.710181 8.156549 -6.267552 0
M  V30 11 C 11.948689 7.836545 -3.754513 0
M  V30 12 C 11.493040 6.704915 -4.474216 0
M  V30 13 C 10.877622 6.868180 -5.725097 0
M  V30 14 C 10.765873 7.747475 -10.030578 0
M  V30 15 O 10.244316 6.417722 -12.385182 0
M  V30 16 C 7.147688 7.412291 -12.893784 0
M  V30 17 C 10.059738 8.322386 -7.618298 0
M  V30 18 N 12.752600 8.684029 -1.544876 0
M  V30 19 N 12.565979 7.689844 -2.499243 0
M  V30 20 C 8.229195 5.571726 -11.386272 0 CFG=1
M  V30 21 C 7.185726 5.924964 -12.481876 0
M  V30 22 O 12.562411 6.390196 -1.985910 0
M  V30 23 H 7.365903 2.999726 -12.867312 0
M  V30 24 H 8.975386 3.314562 -13.501082 0
M  V30 25 H 9.566848 4.026923 -11.479725 0
M  V30 26 H 11.031871 10.273798 -5.974323 0
M  V30 27 H 6.805581 4.796992 -14.339848 0
M  V30 28 H 8.416395 5.482996 -14.207886 0
M  V30 29 H 11.413468 9.450876 -8.906411 0
M  V30 30 H 12.048455 7.918625 -8.386461 0
M  V30 31 H 5.704780 4.493790 -11.690231 0
M  V30 32 H 5.455983 6.152085 -11.163213 0
M  V30 33 H 5.041329 5.678425 -12.805014 0
M  V30 34 H 12.118501 9.990294 -3.760181 0
M  V30 35 H 11.617553 5.711957 -4.069950 0
M  V30 36 H 10.534416 6.001761 -6.272635 0
M  V30 37 H 11.423824 7.990370 -10.870307 0
M  V30 38 H 8.086161 7.752803 -13.329657 0
M  V30 39 H 6.370335 7.590150 -13.638188 0
M  V30 40 H 6.934609 8.047717 -12.032376 0
M  V30 41 H 9.393967 7.467135 -7.739940 0
M  V30 42 H 9.402314 9.190033 -7.632022 0
M  V30 43 H 13.305122 8.306288 -0.778518 0
M  V30 44 H 13.275612 9.459473 -1.950571 0
M  V30 45 H 7.760356 5.665564 -10.403140 0
M  V30 46 H 11.676042 6.225944 -1.697917 0
M  V30 47 H 8.078295 3.590235 -10.907524 0
M  V30 END ATOM
M  V30 BEGIN BOND
M  V30 1 1 3 2
M  V30 2 1 5 1
M  V30 3 1 6 2
M  V30 4 2 9 4
M  V30 5 1 10 4
M  V30 6 1 11 9
M  V30 7 2 12 11
M  V30 8 2 13 10
M  V30 9 1 13 12
M  V30 10 2 14 1
M  V30 11 1 14 7
M  V30 12 2 15 5
M  V30 13 1 17 7
M  V30 14 1 17 10
M  V30 15 1 19 11
M  V30 16 1 19 18
M  V30 17 1 20 3
M  V30 18 1 20 5
M  V30 19 1 21 6
M  V30 20 1 21 8
M  V30 21 1 21 16
M  V30 22 1 21 20
M  V30 23 1 22 19
M  V30 24 1 23 2
M  V30 25 1 24 2
M  V30 26 1 25 3
M  V30 27 1 26 4
M  V30 28 1 27 6
M  V30 29 1 28 6
M  V30 30 1 29 7
M  V30 31 1 30 7
M  V30 32 1 31 8
M  V30 33 1 32 8
M  V30 34 1 33 8
M  V30 35 1 34 9
M  V30 36 1 35 12
M  V30 37 1 36 13
M  V30 38 1 37 14
M  V30 39 1 38 16
M  V30 40 1 39 16
M  V30 41 1 40 16
M  V30 42 1 41 17
M  V30 43 1 42 17
M  V30 44 1 43 18
M  V30 45 1 44 18
M  V30 46 1 20 45 CFG=1
M  V30 47 1 46 22
M  V30 48 1 47 3
M  V30 END BOND
M  V30 END CTAB
M  END
>  <i_epik_Tot_Q>  (1) 
1

>  <i_epik_Tot_abs_Q>  (1) 
1

>  <i_i_glide_confnum>  (1) 
116

>  <i_i_glide_lignum>  (1) 
28

>  <i_i_glide_posenum>  (1) 
246

>  <i_i_glide_rotatable_bonds>  (1) 
7

>  <i_lp_mmshare_version>  (1) 
72125

>  <i_m_source_file_index>  (1) 
15

>  <i_f3d_flags>  (1) 
0

>  <num_sample>  (1) 
100

>  <b_lp_Chiralities_Consistent>  (1) 
1

>  <r_epik_Charging_Adjusted_Penalty>  (1) 
1.3617227199011863

>  <r_epik_Ionization_Penalty>  (1) 
0.68407859148239814

>  <r_epik_Ionization_Penalty_Charging>  (1) 
0.68086135995059327

>  <r_epik_Ionization_Penalty_Neutral>  (1) 
0.0032172315318048095

>  <r_epik_State_Penalty>  (1) 
0.68086135995059305

>  <r_glide_ring_energy>  (1) 
0

>  <r_i_docking_score>  (1) 
-5.7651984156452594

>  <r_i_glide_ecoul>  (1) 
-3.9669312197606339

>  <r_i_glide_eff_state_penalty>  (1) 
0.68086135995059305

>  <r_i_glide_einternal>  (1) 
1.3134567734932201

>  <r_i_glide_emodel>  (1) 
-60.747957285182821

>  <r_i_glide_emodel_strain>  (1) 
0.94540519973327619

>  <r_i_glide_energy>  (1) 
-41.628722380422943

>  <r_i_glide_erotb>  (1) 
1.1872890279772172

>  <r_i_glide_esite>  (1) 
-0.032276700255252082

>  <r_i_glide_evdw>  (1) 
-37.661791160662311

>  <r_i_glide_gscore>  (1) 
-6.4460597755958524

>  <r_i_glide_gscore_strain>  (1) 
0

>  <r_i_glide_hbond>  (1) 
-0.25083562278611515

>  <r_i_glide_ligand_efficiency>  (1) 
-0.26205447343842087

>  <r_i_glide_ligand_efficiency_ln>  (1) 
-1.4092247835053966

>  <r_i_glide_ligand_efficiency_sa>  (1) 
-0.73428694134864281

>  <r_i_glide_lipo>  (1) 
-2.1850368435382679

>  <r_i_glide_metal>  (1) 
-0

>  <r_i_glide_rewards>  (1) 
-2.6870703959962223

>  <r_lp_Energy>  (1) 
27.896162

>  <s_epik_Chemistry_Notes>  (1) 
This compound has an imine and may undergo hydrolysis. This compound has a N-S or N-O group and may undergo hydrolysis at high or low pH.

>  <s_epik_cmdline>  (1) 
J2VwaWtfcHl0aG9uJywgJy1waHQnLCAnMS4wJywgJy1waCcsICc3LjQnLCAnLXRuJywgJzgnLCAnLW1hJywgJzUwMCcsICctaW1hZScsICc8aW5maWxlLm1hZT4nLCAnLW9tYWUnLCAnPG91dGZpbGUubWFlPic=

>  <s_epik_input>  (1) 
W0NIM11DMShbQ0gzXSlbQ0gyXVtDSDJdW05IXVtDQEhdMUMoPU8pL049W0NIXS9bQ0gyXVtDSDJdYzJbY0hdW2NIXWMoW2NIXVtjSF0yKU4oW05IMl0pW09IXQ==

>  <s_glide_docking_method>  (1) 
confgen

>  <s_i_glide_gridfile>  (1) 
gpcr_drd2_6luq_protein_autoprepared_prepared

>  <s_lp_Force_Field>  (1) 
S-OPLS

>  <s_lp_Variant>  (1) 
DiffSBDD_14-3

>  <s_m_source_file>  (1) 
generated_generic_title2_ligand_DiffSBDD_2026-06-23_prepared.sdf

>  <GenAI_Model>  (1) 
DiffSBDD

>  <Protein>  (1) 
generic_title2

$$$$
DiffSBDD_78
     RDKit          3D

  0  0  0  0  0  0  0  0  0  0999 V3000
M  V30 BEGIN CTAB
M  V30 COUNTS 80 84 0 0 1
M  V30 BEGIN ATOM
M  V30 1 C 10.056659 8.271850 -8.175748 0 CFG=2
M  V30 2 C 11.526563 8.468057 -8.593590 0
M  V30 3 C 5.434578 5.460376 -13.102960 0 CFG=1
M  V30 4 C 6.454699 2.803046 -13.363549 0 CFG=2
M  V30 5 C 9.896761 7.845687 -6.710056 0
M  V30 6 N 7.148633 0.589607 -14.344910 0
M  V30 7 C 6.389412 3.486952 -11.982676 0 CFG=1
M  V30 8 C 7.904101 5.311944 -12.881154 0 CFG=1
M  V30 9 N 9.375621 7.194378 -8.909426 0 CFG=2 CHG=1
M  V30 10 C 9.614469 5.923455 -8.212917 0
M  V30 11 N 9.333169 5.339757 -13.301629 0 CFG=1 CHG=1
M  V30 12 C 6.669387 6.091095 -15.170407 0
M  V30 13 C 7.517982 1.680811 -13.441557 0
M  V30 14 C 6.602496 -0.287710 -16.566225 0
M  V30 15 O 6.689720 3.821791 -14.359391 0
M  V30 16 C 9.597932 5.115892 -14.741764 0
M  V30 17 C 6.589978 0.049303 -18.065597 0 CFG=1
M  V30 18 C 5.336802 5.898663 -11.619924 0
M  V30 19 C 6.719277 5.192895 -13.908871 0 CFG=2
M  V30 20 F 5.772027 1.084172 -18.264326 0
M  V30 21 C 9.679443 6.322565 -6.734465 0
M  V30 22 C 6.675305 7.596037 -14.891406 0
M  V30 23 O 8.454114 1.160262 -16.198332 0
M  V30 24 C 7.725758 4.232015 -11.768334 0
M  V30 25 C 8.004697 0.472286 -18.495164 0 CFG=1
M  V30 26 C 10.286071 6.396912 -11.175326 0
M  V30 27 C 7.150706 0.915317 -15.766550 0 CFG=2
M  V30 28 C 9.295506 7.244026 -10.386095 0
M  V30 29 C 10.087206 6.486455 -12.698627 0
M  V30 30 C 6.041225 -1.111088 -18.911053 0
M  V30 31 C 8.548051 1.568150 -17.559673 0
M  V30 32 C 5.238908 4.452722 -12.029581 0 CFG=1
M  V30 33 F 8.842356 -0.567202 -18.479340 0
M  V30 34 H 9.502206 9.190138 -8.352736 0
M  V30 35 H 11.996442 9.241827 -7.985718 0
M  V30 36 H 12.109809 7.555369 -8.470839 0
M  V30 37 H 11.605157 8.789618 -9.632688 0
M  V30 38 H 4.575386 5.623853 -13.735811 0
M  V30 39 H 5.476459 2.361952 -13.562393 0
M  V30 40 H 9.006085 8.324489 -6.295290 0
M  V30 41 H 10.743041 8.131644 -6.083749 0
M  V30 42 H 7.753474 -0.212480 -14.192295 0
M  V30 43 H 6.175410 2.791851 -11.185121 0
M  V30 44 H 7.721013 6.305273 -12.492612 0
M  V30 45 H 8.831969 5.192904 -8.423264 0
M  V30 46 H 10.572058 5.501495 -8.516459 0
M  V30 47 H 7.425362 5.833206 -15.902091 0
M  V30 48 H 5.744995 5.865399 -15.702302 0
M  V30 49 H 7.640982 1.250541 -12.448128 0
M  V30 50 H 8.494758 2.085123 -13.701934 0
M  V30 51 H 7.232390 -1.157628 -16.379359 0
M  V30 52 H 5.599938 -0.528245 -16.210589 0
M  V30 53 H 9.401574 5.990101 -15.352488 0
M  V30 54 H 10.632124 4.862217 -14.917337 0
M  V30 55 H 9.021577 4.272759 -15.120654 0
M  V30 56 H 6.205098 6.223457 -11.063685 0
M  V30 57 H 4.434048 6.311680 -11.185000 0
M  V30 58 H 8.740297 6.074382 -6.236632 0
M  V30 59 H 10.483844 5.796271 -6.220205 0
M  V30 60 H 6.647282 8.161752 -15.823124 0
M  V30 61 H 5.791765 7.882749 -14.323458 0
M  V30 62 H 7.558703 7.908639 -14.335629 0
M  V30 63 H 7.753005 4.664726 -10.768413 0
M  V30 64 H 8.548881 3.515556 -11.778177 0
M  V30 65 H 7.996352 0.830307 -19.524787 0
M  V30 66 H 10.175350 5.361550 -10.857797 0
M  V30 67 H 11.273457 6.790574 -10.924156 0
M  V30 68 H 6.538833 1.801838 -15.940022 0
M  V30 69 H 9.281881 8.283698 -10.716892 0
M  V30 70 H 8.324932 6.826626 -10.609339 0
M  V30 71 H 11.060166 6.569968 -13.184912 0
M  V30 72 H 9.564809 7.430712 -12.836162 0
M  V30 73 H 6.654621 -2.006550 -18.811343 0
M  V30 74 H 5.027610 -1.372599 -18.607523 0
M  V30 75 H 6.008553 -0.847569 -19.967795 0
M  V30 76 H 7.998067 2.499889 -17.698794 0
M  V30 77 H 9.591096 1.782099 -17.791470 0
M  V30 78 H 4.262784 3.990268 -12.091644 0
M  V30 79 H 8.392161 7.401681 -8.712137 0
M  V30 80 H 9.738016 4.517071 -12.876633 0
M  V30 END ATOM
M  V30 BEGIN BOND
M  V30 1 1 2 1
M  V30 2 1 5 1
M  V30 3 1 7 4
M  V30 4 1 9 1
M  V30 5 1 10 9
M  V30 6 1 11 8
M  V30 7 1 13 4
M  V30 8 1 13 6
M  V30 9 1 15 4
M  V30 10 1 16 11
M  V30 11 1 17 14
M  V30 12 1 18 3
M  V30 13 1 19 3
M  V30 14 1 19 8
M  V30 15 1 19 12 CFG=3
M  V30 16 1 19 15
M  V30 17 1 17 20 CFG=1
M  V30 18 1 21 5
M  V30 19 1 21 10
M  V30 20 1 22 12
M  V30 21 1 24 7
M  V30 22 1 24 8
M  V30 23 1 25 17
M  V30 24 1 27 6
M  V30 25 1 27 14
M  V30 26 1 27 23
M  V30 27 1 28 9
M  V30 28 1 28 26
M  V30 29 1 29 11
M  V30 30 1 29 26
M  V30 31 1 30 17
M  V30 32 1 31 23
M  V30 33 1 31 25
M  V30 34 1 32 3
M  V30 35 1 32 7
M  V30 36 1 32 18
M  V30 37 1 33 25
M  V30 38 1 1 34 CFG=1
M  V30 39 1 35 2
M  V30 40 1 36 2
M  V30 41 1 37 2
M  V30 42 1 3 38 CFG=3
M  V30 43 1 4 39 CFG=3
M  V30 44 1 40 5
M  V30 45 1 41 5
M  V30 46 1 42 6
M  V30 47 1 7 43 CFG=1
M  V30 48 1 8 44 CFG=1
M  V30 49 1 45 10
M  V30 50 1 46 10
M  V30 51 1 47 12
M  V30 52 1 48 12
M  V30 53 1 49 13
M  V30 54 1 50 13
M  V30 55 1 51 14
M  V30 56 1 52 14
M  V30 57 1 53 16
M  V30 58 1 54 16
M  V30 59 1 55 16
M  V30 60 1 56 18
M  V30 61 1 57 18
M  V30 62 1 58 21
M  V30 63 1 59 21
M  V30 64 1 60 22
M  V30 65 1 61 22
M  V30 66 1 62 22
M  V30 67 1 63 24
M  V30 68 1 64 24
M  V30 69 1 25 65 CFG=3
M  V30 70 1 66 26
M  V30 71 1 67 26
M  V30 72 1 27 68 CFG=1
M  V30 73 1 69 28
M  V30 74 1 70 28
M  V30 75 1 71 29
M  V30 76 1 72 29
M  V30 77 1 73 30
M  V30 78 1 74 30
M  V30 79 1 75 30
M  V30 80 1 76 31
M  V30 81 1 77 31
M  V30 82 1 32 78 CFG=3
M  V30 83 1 9 79 CFG=1
M  V30 84 1 11 80 CFG=1
M  V30 END BOND
M  V30 END CTAB
M  END
>  <i_epik_Tot_Q>  (1) 
2

>  <i_epik_Tot_abs_Q>  (1) 
2

>  <i_i_glide_confnum>  (1) 
1256

>  <i_i_glide_lignum>  (1) 
131

>  <i_i_glide_posenum>  (1) 
379

>  <i_i_glide_rotatable_bonds>  (1) 
9

>  <i_lp_mmshare_version>  (1) 
72125

>  <i_m_source_file_index>  (1) 
79

>  <i_f3d_flags>  (1) 
0

>  <num_sample>  (1) 
100

>  <b_lp_Chiralities_Consistent>  (1) 
1

>  <r_epik_Charging_Adjusted_Penalty>  (1) 
0.22182564166484353

>  <r_epik_Ionization_Penalty>  (1) 
0.22182564166592098

>  <r_epik_Ionization_Penalty_Charging>  (1) 
0.060182310347739972

>  <r_epik_Ionization_Penalty_Neutral>  (1) 
0.16164333131818101

>  <r_epik_State_Penalty>  (1) 
0.16164333131710357

>  <r_glide_ring_energy>  (1) 
0

>  <r_i_docking_score>  (1) 
-5.7650805678571331

>  <r_i_glide_ecoul>  (1) 
-8.1800290106234055

>  <r_i_glide_eff_state_penalty>  (1) 
0.16164333131710357

>  <r_i_glide_einternal>  (1) 
5.3260629281446938

>  <r_i_glide_emodel>  (1) 
-41.548814836435966

>  <r_i_glide_emodel_strain>  (1) 
0.063350926961959431

>  <r_i_glide_energy>  (1) 
-30.927169546571072

>  <r_i_glide_erotb>  (1) 
0.50880729737642771

>  <r_i_glide_esite>  (1) 
-0.10000000000000001

>  <r_i_glide_evdw>  (1) 
-22.747140535947665

>  <r_i_glide_gscore>  (1) 
-5.9267238991742364

>  <r_i_glide_gscore_strain>  (1) 
0

>  <r_i_glide_hbond>  (1) 
-0.18214920307223204

>  <r_i_glide_ligand_efficiency>  (1) 
-0.17469941114718585

>  <r_i_glide_ligand_efficiency_ln>  (1) 
-1.2821240683017832

>  <r_i_glide_ligand_efficiency_sa>  (1) 
-0.56035435868465422

>  <r_i_glide_lipo>  (1) 
-1.8517049568049337

>  <r_i_glide_metal>  (1) 
-0

>  <r_i_glide_rewards>  (1) 
-1.9373156582826034

>  <r_lp_Energy>  (1) 
71.261048000000002

>  <s_epik_Chemistry_Notes>  (1) 
This compound contains an acetal/aminal-like group ( X-CH(R)-Y where X, Y are N, S, or O) that may be acid/base labile, releasing an aldehyde.

>  <s_epik_cmdline>  (1) 
J2VwaWtfcHl0aG9uJywgJy1waHQnLCAnMS4wJywgJy1waCcsICc3LjQnLCAnLXRuJywgJzgnLCAnLW1hJywgJzUwMCcsICctaW1hZScsICc8aW5maWxlLm1hZT4nLCAnLW9tYWUnLCAnPG91dGZpbGUubWFlPic=

>  <s_epik_input>  (1) 
W0NIM11bQ0BASF0xW0NIMl1bQ0gyXVtDSDJdTjFbQ0gyXVtDSDJdW0NIMl1OKFtDSDNdKVtDQEBIXTJbQ0gyXVtDQEBIXShbQ0BASF0oW0NIMl0zKVtDQEBIXTNbQ0BAXTI0W0NIMl1bQ0gzXSlbQ0BASF0oTzQpW0NIMl1bTkhdW0NASF0oW0NIMl1bQ0BdNShGKVtDSDNdKU9bQ0gyXVtDQEhdNUY=

>  <s_glide_docking_method>  (1) 
confgen

>  <s_i_glide_gridfile>  (1) 
gpcr_drd2_6luq_protein_autoprepared_prepared

>  <s_lp_Force_Field>  (1) 
S-OPLS

>  <s_lp_Variant>  (1) 
DiffSBDD_78-3

>  <s_m_source_file>  (1) 
generated_generic_title2_ligand_DiffSBDD_2026-06-23_prepared.sdf

>  <GenAI_Model>  (1) 
DiffSBDD

>  <Protein>  (1) 
generic_title2

$$$$
DiffSBDD_78
     RDKit          3D

  0  0  0  0  0  0  0  0  0  0999 V3000
M  V30 BEGIN CTAB
M  V30 COUNTS 80 84 0 0 1
M  V30 BEGIN ATOM
M  V30 1 C 9.757474 6.335162 -7.899171 0 CFG=2
M  V30 2 C 8.606759 5.311294 -7.922466 0
M  V30 3 C 5.812027 4.103796 -12.760183 0 CFG=1
M  V30 4 C 7.166783 2.827586 -14.737613 0 CFG=2
M  V30 5 C 10.153955 6.756797 -6.476921 0
M  V30 6 N 7.416927 2.252609 -17.169997 0
M  V30 7 C 7.448459 2.352122 -13.277578 0 CFG=1
M  V30 8 C 8.273874 4.674423 -12.723493 0 CFG=1
M  V30 9 N 9.380836 7.583889 -8.613493 0 CFG=1 CHG=1
M  V30 10 C 9.572255 8.722842 -7.702207 0
M  V30 11 N 9.488567 5.463792 -13.097765 0 CFG=1 CHG=1
M  V30 12 C 6.449500 6.365526 -13.686117 0
M  V30 13 C 8.079704 2.289223 -15.860488 0
M  V30 14 C 6.316508 3.424373 -19.042736 0
M  V30 15 O 7.096139 4.270889 -14.753677 0
M  V30 16 C 9.801781 5.485170 -14.545140 0
M  V30 17 C 6.041445 4.825903 -19.618025 0 CFG=1
M  V30 18 C 5.908311 3.590251 -11.344728 0
M  V30 19 C 6.916553 4.904175 -13.476409 0 CFG=2
M  V30 20 F 5.375302 5.547174 -18.712489 0
M  V30 21 C 9.535585 8.137125 -6.303874 0
M  V30 22 C 5.970565 7.101188 -12.418913 0
M  V30 23 O 8.404919 4.136471 -18.165232 0
M  V30 24 C 8.601892 3.169915 -12.666806 0
M  V30 25 C 7.381753 5.533285 -19.885899 0 CFG=1
M  V30 26 C 9.506428 6.640138 -10.868577 0
M  V30 27 C 7.192424 3.563891 -17.780764 0 CFG=2
M  V30 28 C 9.978589 7.771966 -9.960386 0
M  V30 29 C 9.690194 6.768361 -12.390610 0
M  V30 30 C 5.143153 4.762751 -20.864627 0
M  V30 31 C 8.285280 5.477002 -18.639262 0
M  V30 32 C 6.156610 2.646942 -12.533615 0 CFG=1
M  V30 33 F 8.019233 4.959386 -20.907118 0
M  V30 34 H 10.632601 5.885523 -8.369779 0
M  V30 35 H 8.960983 4.341031 -7.584955 0
M  V30 36 H 7.777876 5.603136 -7.276684 0
M  V30 37 H 8.197809 5.159275 -8.919275 0
M  V30 38 H 4.813053 4.273683 -13.157257 0
M  V30 39 H 6.176267 2.452489 -14.981730 0
M  V30 40 H 11.239854 6.836849 -6.406239 0
M  V30 41 H 9.827827 6.052315 -5.711912 0
M  V30 42 H 7.972098 1.695250 -17.812154 0
M  V30 43 H 7.654086 1.281332 -13.233342 0
M  V30 44 H 8.063743 4.917479 -11.704059 0
M  V30 45 H 10.541574 9.189954 -7.879347 0
M  V30 46 H 8.780512 9.457186 -7.847909 0
M  V30 47 H 7.212732 6.955032 -14.190467 0
M  V30 48 H 5.606984 6.338935 -14.378849 0
M  V30 49 H 8.394001 1.276736 -15.603929 0
M  V30 50 H 8.976722 2.885299 -15.949324 0
M  V30 51 H 6.834699 2.800379 -19.772119 0
M  V30 52 H 5.382508 2.923491 -18.785305 0
M  V30 53 H 9.033840 5.989768 -15.131909 0
M  V30 54 H 10.768599 5.960786 -14.722480 0
M  V30 55 H 9.895087 4.476004 -14.930868 0
M  V30 56 H 6.733058 3.834135 -10.689378 0
M  V30 57 H 4.975292 3.590305 -10.799570 0
M  V30 58 H 10.069334 8.756554 -5.584832 0
M  V30 59 H 8.498506 8.047043 -5.985025 0
M  V30 60 H 5.398373 7.989521 -12.680409 0
M  V30 61 H 5.318079 6.489254 -11.797107 0
M  V30 62 H 6.799737 7.428086 -11.798903 0
M  V30 63 H 8.828363 2.870234 -11.644905 0
M  V30 64 H 9.516109 2.963287 -13.184381 0
M  V30 65 H 7.216360 6.570567 -20.180659 0
M  V30 66 H 8.442681 6.574666 -10.665439 0
M  V30 67 H 9.951132 5.702046 -10.541579 0
M  V30 68 H 6.702238 4.224842 -17.066970 0
M  V30 69 H 11.067876 7.812507 -9.908711 0
M  V30 70 H 9.630710 8.725482 -10.358939 0
M  V30 71 H 10.706098 7.110405 -12.595639 0
M  V30 72 H 9.014836 7.526927 -12.784474 0
M  V30 73 H 5.607076 4.177269 -21.658713 0
M  V30 74 H 4.182438 4.300882 -20.631966 0
M  V30 75 H 4.941165 5.759358 -21.258191 0
M  V30 76 H 7.885038 6.109563 -17.845206 0
M  V30 77 H 9.278720 5.860871 -18.873396 0
M  V30 78 H 5.376161 1.931637 -12.788667 0
M  V30 79 H 8.367391 7.553821 -8.779657 0
M  V30 80 H 10.243546 4.898702 -12.729479 0
M  V30 END ATOM
M  V30 BEGIN BOND
M  V30 1 1 2 1
M  V30 2 1 5 1
M  V30 3 1 7 4
M  V30 4 1 9 1
M  V30 5 1 10 9
M  V30 6 1 11 8
M  V30 7 1 13 4
M  V30 8 1 13 6
M  V30 9 1 15 4
M  V30 10 1 16 11
M  V30 11 1 17 14
M  V30 12 1 18 3
M  V30 13 1 19 3
M  V30 14 1 19 8
M  V30 15 1 19 12 CFG=3
M  V30 16 1 19 15
M  V30 17 1 17 20 CFG=1
M  V30 18 1 21 5
M  V30 19 1 21 10
M  V30 20 1 22 12
M  V30 21 1 24 7
M  V30 22 1 24 8
M  V30 23 1 25 17
M  V30 24 1 27 6
M  V30 25 1 27 14
M  V30 26 1 27 23
M  V30 27 1 28 9
M  V30 28 1 28 26
M  V30 29 1 29 11
M  V30 30 1 29 26
M  V30 31 1 30 17
M  V30 32 1 31 23
M  V30 33 1 31 25
M  V30 34 1 32 3
M  V30 35 1 32 7
M  V30 36 1 32 18
M  V30 37 1 33 25
M  V30 38 1 1 34 CFG=3
M  V30 39 1 35 2
M  V30 40 1 36 2
M  V30 41 1 37 2
M  V30 42 1 3 38 CFG=3
M  V30 43 1 4 39 CFG=3
M  V30 44 1 40 5
M  V30 45 1 41 5
M  V30 46 1 42 6
M  V30 47 1 7 43 CFG=3
M  V30 48 1 8 44 CFG=1
M  V30 49 1 45 10
M  V30 50 1 46 10
M  V30 51 1 47 12
M  V30 52 1 48 12
M  V30 53 1 49 13
M  V30 54 1 50 13
M  V30 55 1 51 14
M  V30 56 1 52 14
M  V30 57 1 53 16
M  V30 58 1 54 16
M  V30 59 1 55 16
M  V30 60 1 56 18
M  V30 61 1 57 18
M  V30 62 1 58 21
M  V30 63 1 59 21
M  V30 64 1 60 22
M  V30 65 1 61 22
M  V30 66 1 62 22
M  V30 67 1 63 24
M  V30 68 1 64 24
M  V30 69 1 25 65 CFG=3
M  V30 70 1 66 26
M  V30 71 1 67 26
M  V30 72 1 27 68 CFG=1
M  V30 73 1 69 28
M  V30 74 1 70 28
M  V30 75 1 71 29
M  V30 76 1 72 29
M  V30 77 1 73 30
M  V30 78 1 74 30
M  V30 79 1 75 30
M  V30 80 1 76 31
M  V30 81 1 77 31
M  V30 82 1 32 78 CFG=3
M  V30 83 1 9 79 CFG=3
M  V30 84 1 11 80 CFG=1
M  V30 END BOND
M  V30 END CTAB
M  END
>  <i_epik_Tot_Q>  (1) 
2

>  <i_epik_Tot_abs_Q>  (1) 
2

>  <i_i_glide_confnum>  (1) 
599

>  <i_i_glide_lignum>  (1) 
132

>  <i_i_glide_posenum>  (1) 
148

>  <i_i_glide_rotatable_bonds>  (1) 
9

>  <i_lp_mmshare_version>  (1) 
72125

>  <i_m_source_file_index>  (1) 
79

>  <i_f3d_flags>  (1) 
0

>  <num_sample>  (1) 
100

>  <b_lp_Chiralities_Consistent>  (1) 
1

>  <r_epik_Charging_Adjusted_Penalty>  (1) 
0.22182564166484353

>  <r_epik_Ionization_Penalty>  (1) 
0.22182564166592098

>  <r_epik_Ionization_Penalty_Charging>  (1) 
0.060182310347739972

>  <r_epik_Ionization_Penalty_Neutral>  (1) 
0.16164333131818101

>  <r_epik_State_Penalty>  (1) 
0.16164333131710357

>  <r_glide_ring_energy>  (1) 
0

>  <r_i_docking_score>  (1) 
-5.7582698701414667

>  <r_i_glide_ecoul>  (1) 
-7.4452987142408187

>  <r_i_glide_eff_state_penalty>  (1) 
0.16164333131710357

>  <r_i_glide_einternal>  (1) 
5.4562872789833055

>  <r_i_glide_emodel>  (1) 
-40.789276202506564

>  <r_i_glide_emodel_strain>  (1) 
1.8027026428484021

>  <r_i_glide_energy>  (1) 
-30.74528438575792

>  <r_i_glide_erotb>  (1) 
0.50880729737642771

>  <r_i_glide_esite>  (1) 
-0.10000000000000001

>  <r_i_glide_evdw>  (1) 
-23.299985671517099

>  <r_i_glide_gscore>  (1) 
-5.91991320145857

>  <r_i_glide_gscore_strain>  (1) 
0

>  <r_i_glide_hbond>  (1) 
-0.20000000000000001

>  <r_i_glide_ligand_efficiency>  (1) 
-0.17449302636792324

>  <r_i_glide_ligand_efficiency_ln>  (1) 
-1.2806094043937244

>  <r_i_glide_ligand_efficiency_sa>  (1) 
-0.55969237241998082

>  <r_i_glide_lipo>  (1) 
-1.9925760084767135

>  <r_i_glide_metal>  (1) 
-0

>  <r_i_glide_rewards>  (1) 
-1.854350399646306

>  <r_lp_Energy>  (1) 
69.690649999999991

>  <s_epik_Chemistry_Notes>  (1) 
This compound contains an acetal/aminal-like group ( X-CH(R)-Y where X, Y are N, S, or O) that may be acid/base labile, releasing an aldehyde.

>  <s_epik_cmdline>  (1) 
J2VwaWtfcHl0aG9uJywgJy1waHQnLCAnMS4wJywgJy1waCcsICc3LjQnLCAnLXRuJywgJzgnLCAnLW1hJywgJzUwMCcsICctaW1hZScsICc8aW5maWxlLm1hZT4nLCAnLW9tYWUnLCAnPG91dGZpbGUubWFlPic=

>  <s_epik_input>  (1) 
W0NIM11bQ0BASF0xW0NIMl1bQ0gyXVtDSDJdTjFbQ0gyXVtDSDJdW0NIMl1OKFtDSDNdKVtDQEBIXTJbQ0gyXVtDQEBIXShbQ0BASF0oW0NIMl0zKVtDQEBIXTNbQ0BAXTI0W0NIMl1bQ0gzXSlbQ0BASF0oTzQpW0NIMl1bTkhdW0NASF0oW0NIMl1bQ0BdNShGKVtDSDNdKU9bQ0gyXVtDQEhdNUY=

>  <s_glide_docking_method>  (1) 
confgen

>  <s_i_glide_gridfile>  (1) 
gpcr_drd2_6luq_protein_autoprepared_prepared

>  <s_lp_Force_Field>  (1) 
S-OPLS

>  <s_lp_Variant>  (1) 
DiffSBDD_78-4

>  <s_m_source_file>  (1) 
generated_generic_title2_ligand_DiffSBDD_2026-06-23_prepared.sdf

>  <GenAI_Model>  (1) 
DiffSBDD

>  <Protein>  (1) 
generic_title2

$$$$
DiffSBDD_93
     RDKit          3D

  0  0  0  0  0  0  0  0  0  0999 V3000
M  V30 BEGIN CTAB
M  V30 COUNTS 69 73 0 0 1
M  V30 BEGIN ATOM
M  V30 1 C 7.949495 4.757718 -12.597490 0 CFG=1
M  V30 2 C 11.375411 6.730818 -5.506575 0
M  V30 3 C 6.975527 1.696749 -16.274703 0
M  V30 4 O 12.175396 9.590233 -1.886542 0
M  V30 5 C 10.200751 5.985898 -12.764833 0
M  V30 6 C 10.809151 7.310638 -12.372397 0
M  V30 7 C 11.664711 9.446695 -4.785676 0
M  V30 8 C 6.404244 5.050208 -10.488472 0
M  V30 9 N 8.875744 5.839025 -12.148116 0 CFG=2 CHG=1
M  V30 10 C 11.399372 9.113092 -6.132858 0
M  V30 11 C 11.637666 7.122411 -4.196454 0
M  V30 12 C 7.030499 1.567370 -13.458993 0
M  V30 13 C 8.631641 3.557168 -13.319086 0 CFG=1
M  V30 14 C 12.039524 8.538737 -2.484733 0
M  V30 15 C 7.729148 2.640833 -15.545389 0
M  V30 16 C 5.375090 3.967623 -10.694774 0
M  V30 17 O 9.381228 2.810602 -12.385038 0
M  V30 18 C 7.683227 4.595094 -11.096519 0 CFG=2
M  V30 19 C 11.259718 7.733779 -6.499814 0
M  V30 20 C 11.779260 8.402836 -3.864559 0
M  V30 21 C 6.256166 0.691391 -15.600259 0
M  V30 22 N 12.077426 7.296146 -1.985029 0
M  V30 23 C 11.779944 6.170941 -2.994283 0
M  V30 24 C 10.283542 8.302196 -8.633137 0
M  V30 25 N 11.024226 7.354227 -7.817261 0
M  V30 26 C 8.988288 5.286851 -10.811090 0 CFG=2
M  V30 27 C 9.879191 7.608622 -9.950250 0 CFG=2
M  V30 28 C 7.765721 2.574225 -14.127463 0
M  V30 29 C 9.177825 6.248201 -9.654910 0
M  V30 30 O 8.427133 3.608862 -16.210770 0
M  V30 31 C 6.866819 5.368683 -13.501155 0
M  V30 32 C 11.112894 7.521350 -10.876568 0
M  V30 33 C 6.279883 0.629683 -14.194691 0
M  V30 34 H 11.269823 5.686981 -5.759342 0
M  V30 35 H 6.951803 1.741086 -17.352766 0
M  V30 36 H 10.126337 5.947595 -13.849934 0
M  V30 37 H 10.863091 5.190252 -12.430163 0
M  V30 38 H 11.738818 7.401300 -12.935491 0
M  V30 39 H 10.157976 8.112177 -12.719355 0
M  V30 40 H 11.775670 10.471071 -4.481206 0
M  V30 41 H 6.060692 6.009299 -10.870804 0
M  V30 42 H 6.575509 5.189707 -9.434204 0
M  V30 43 H 11.318682 9.891716 -6.871459 0
M  V30 44 H 7.053498 1.505099 -12.385166 0
M  V30 45 H 9.349114 3.990221 -14.012128 0
M  V30 46 H 4.575440 4.128214 -9.985021 0
M  V30 47 H 5.768837 2.970143 -10.497432 0
M  V30 48 H 4.975254 3.990205 -11.706211 0
M  V30 49 H 8.835103 2.194230 -11.918293 0
M  V30 50 H 7.868559 3.590236 -10.771956 0
M  V30 51 H 5.684834 -0.033244 -16.162447 0
M  V30 52 H 12.246529 7.099719 -1.013176 0
M  V30 53 H 10.834617 5.691557 -2.754982 0
M  V30 54 H 12.575429 5.448457 -3.095410 0
M  V30 55 H 9.388020 8.623290 -8.096269 0
M  V30 56 H 10.878648 9.190287 -8.843465 0
M  V30 57 H 10.835540 6.377415 -7.983019 0
M  V30 58 H 9.775417 4.535733 -10.752886 0
M  V30 59 H 9.153322 8.264577 -10.433941 0
M  V30 60 H 8.268989 6.390203 -9.085009 0
M  V30 61 H 9.761390 5.661089 -8.950203 0
M  V30 62 H 8.324968 3.558543 -17.149264 0
M  V30 63 H 6.069722 4.656289 -13.714761 0
M  V30 64 H 7.280858 5.682717 -14.459715 0
M  V30 65 H 6.397693 6.247413 -13.060331 0
M  V30 66 H 11.823775 6.790226 -10.511049 0
M  V30 67 H 11.654802 8.460830 -10.784999 0
M  V30 68 H 5.726591 -0.144325 -13.678973 0
M  V30 69 H 8.375205 6.715931 -12.105934 0
M  V30 END ATOM
M  V30 BEGIN BOND
M  V30 1 1 6 5
M  V30 2 1 9 1
M  V30 3 1 9 5
M  V30 4 2 10 7
M  V30 5 1 11 2
M  V30 6 1 13 1
M  V30 7 2 14 4
M  V30 8 2 15 3
M  V30 9 1 16 8
M  V30 10 1 17 13
M  V30 11 1 18 1
M  V30 12 1 18 8
M  V30 13 2 19 2
M  V30 14 1 19 10
M  V30 15 1 20 7
M  V30 16 2 20 11
M  V30 17 1 20 14
M  V30 18 1 21 3
M  V30 19 1 22 14
M  V30 20 1 23 11
M  V30 21 1 23 22
M  V30 22 1 25 19
M  V30 23 1 25 24
M  V30 24 1 26 9
M  V30 25 1 26 18
M  V30 26 1 27 24
M  V30 27 2 28 12
M  V30 28 1 28 13
M  V30 29 1 28 15
M  V30 30 1 29 26
M  V30 31 1 29 27
M  V30 32 1 30 15
M  V30 33 1 1 31 CFG=3
M  V30 34 1 32 6
M  V30 35 1 32 27
M  V30 36 1 33 12
M  V30 37 2 33 21
M  V30 38 1 34 2
M  V30 39 1 35 3
M  V30 40 1 36 5
M  V30 41 1 37 5
M  V30 42 1 38 6
M  V30 43 1 39 6
M  V30 44 1 40 7
M  V30 45 1 41 8
M  V30 46 1 42 8
M  V30 47 1 43 10
M  V30 48 1 44 12
M  V30 49 1 13 45 CFG=3
M  V30 50 1 46 16
M  V30 51 1 47 16
M  V30 52 1 48 16
M  V30 53 1 49 17
M  V30 54 1 18 50 CFG=3
M  V30 55 1 51 21
M  V30 56 1 52 22
M  V30 57 1 53 23
M  V30 58 1 54 23
M  V30 59 1 55 24
M  V30 60 1 56 24
M  V30 61 1 57 25
M  V30 62 1 26 58 CFG=3
M  V30 63 1 27 59 CFG=3
M  V30 64 1 60 29
M  V30 65 1 61 29
M  V30 66 1 62 30
M  V30 67 1 63 31
M  V30 68 1 64 31
M  V30 69 1 65 31
M  V30 70 1 66 32
M  V30 71 1 67 32
M  V30 72 1 68 33
M  V30 73 1 9 69 CFG=1
M  V30 END BOND
M  V30 END CTAB
M  END
>  <i_epik_Tot_Q>  (1) 
1

>  <i_epik_Tot_abs_Q>  (1) 
1

>  <i_i_glide_confnum>  (1) 
98

>  <i_i_glide_lignum>  (1) 
177

>  <i_i_glide_posenum>  (1) 
188

>  <i_i_glide_rotatable_bonds>  (1) 
8

>  <i_lp_mmshare_version>  (1) 
72125

>  <i_m_source_file_index>  (1) 
94

>  <i_f3d_flags>  (1) 
0

>  <num_sample>  (1) 
100

>  <b_lp_Chiralities_Consistent>  (1) 
1

>  <r_epik_Charging_Adjusted_Penalty>  (1) 
0.009895405337619817

>  <r_epik_Ionization_Penalty>  (1) 
0.010018489252536679

>  <r_epik_Ionization_Penalty_Charging>  (1) 
0.00060073207358730301

>  <r_epik_Ionization_Penalty_Neutral>  (1) 
0.0094177571789493767

>  <r_epik_State_Penalty>  (1) 
0.0092946732640325144

>  <r_glide_ring_energy>  (1) 
0

>  <r_i_docking_score>  (1) 
-5.7523500930776086

>  <r_i_glide_ecoul>  (1) 
-3.0972295279280972

>  <r_i_glide_eff_state_penalty>  (1) 
0.0092946732640325144

>  <r_i_glide_einternal>  (1) 
2.5372125293513719

>  <r_i_glide_emodel>  (1) 
-29.298866007226053

>  <r_i_glide_emodel_strain>  (1) 
4.060269959658342

>  <r_i_glide_energy>  (1) 
-24.205294476518773

>  <r_i_glide_erotb>  (1) 
0.49373930985115227

>  <r_i_glide_esite>  (1) 
0

>  <r_i_glide_evdw>  (1) 
-21.108064948590677

>  <r_i_glide_gscore>  (1) 
-5.7616447663416412

>  <r_i_glide_gscore_strain>  (1) 
0.015067489914585508

>  <r_i_glide_hbond>  (1) 
-0.091884856493812631

>  <r_i_glide_ligand_efficiency>  (1) 
-0.17431363918416995

>  <r_i_glide_ligand_efficiency_ln>  (1) 
-1.2792928766256875

>  <r_i_glide_ligand_efficiency_sa>  (1) 
-0.55911698186973091

>  <r_i_glide_lipo>  (1) 
-3.0055306445293146

>  <r_i_glide_metal>  (1) 
-0

>  <r_i_glide_rewards>  (1) 
-1.6530483884655032

>  <r_lp_Energy>  (1) 
49.614931999999996

>  <r_lp_tautomer_probability>  (1) 
0.99999999999736477

>  <s_epik_cmdline>  (1) 
J2VwaWtfcHl0aG9uJywgJy1waHQnLCAnMS4wJywgJy1waCcsICc3LjQnLCAnLXRuJywgJzgnLCAnLW1hJywgJzUwMCcsICctaW1hZScsICc8aW5maWxlLm1hZT4nLCAnLW9tYWUnLCAnPG91dGZpbGUubWFlPic=

>  <s_epik_input>  (1) 
W09IXWMxW2NIXVtjSF1bY0hdW2NIXWMxW0NASF0oW09IXSlbQ0BAXTIoW0NIM10pW0NASF0oW0NIMl1bQ0gzXSlbQ0BASF0oTjIzKVtDSDJdW0NASF0oW0NIMl1bQ0gyXVtDSDJdMylbQ0gyXVtOSF1jKFtjSF00KVtjSF1bY0hdYyhjNDUpQyg9TylbTkhdW0NIMl01

>  <s_glide_docking_method>  (1) 
confgen

>  <s_i_glide_gridfile>  (1) 
gpcr_drd2_6luq_protein_autoprepared_prepared

>  <s_lp_Force_Field>  (1) 
S-OPLS

>  <s_lp_Variant>  (1) 
DiffSBDD_93-2

>  <s_m_source_file>  (1) 
generated_generic_title2_ligand_DiffSBDD_2026-06-23_prepared.sdf

>  <GenAI_Model>  (1) 
DiffSBDD

>  <Protein>  (1) 
generic_title2

$$$$
DiffSBDD_13
     RDKit          3D

  0  0  0  0  0  0  0  0  0  0999 V3000
M  V30 BEGIN CTAB
M  V30 COUNTS 57 60 0 0 1
M  V30 BEGIN ATOM
M  V30 1 C 7.466911 1.800666 -15.677524 0
M  V30 2 N 8.575214 5.888411 -8.324693 0 CHG=1
M  V30 3 N 7.320392 1.261820 -14.426470 0
M  V30 4 C 7.507768 3.210968 -12.799381 0 CFG=1
M  V30 5 N 6.197526 3.637233 -13.210599 0
M  V30 6 C 10.362731 6.946871 -9.658976 0 CFG=2
M  V30 7 N 8.145228 2.886714 -16.067381 0
M  V30 8 C 10.696814 7.666575 -6.738238 0
M  V30 9 C 8.152874 7.666192 -12.754168 0
M  V30 10 C 9.525105 6.742222 -10.955505 0
M  V30 11 C 7.838089 2.752044 -17.356288 0
M  V30 12 F 10.124871 4.466308 -17.358303 0
M  V30 13 C 6.844253 1.126825 -16.577659 0
M  V30 14 C 10.718300 6.196226 -7.160388 0
M  V30 15 C 7.890194 1.756737 -13.178078 0
M  V30 16 C 11.262399 8.538537 -7.859869 0
M  V30 17 C 6.903928 1.561159 -17.933401 0
M  V30 18 C 6.207444 0.029221 -15.924729 0
M  V30 19 C 9.378305 5.448180 -11.526726 0
M  V30 20 O 8.279952 3.605789 -18.345576 0
M  V30 21 C 10.018129 5.940859 -8.518009 0 CFG=1
M  V30 22 F 9.271933 5.434365 -19.111038 0
M  V30 23 F 8.200523 5.559984 -17.223089 0
M  V30 24 C 6.519497 0.131045 -14.579382 0
M  V30 25 C 8.955620 4.737209 -17.993241 0
M  V30 26 O 7.294419 6.229272 -14.463440 0
M  V30 27 C 10.392319 8.401502 -9.119847 0
M  V30 28 C 8.016184 6.390673 -13.319894 0
M  V30 29 O 8.508797 4.038900 -13.295865 0
M  V30 30 C 8.905493 7.846967 -11.584051 0
M  V30 31 C 8.627876 5.280459 -12.715241 0
M  V30 32 H 8.166422 6.815688 -8.237937 0
M  V30 33 H 8.146979 5.486450 -9.146221 0
M  V30 34 H 7.562458 3.330657 -11.720567 0
M  V30 35 H 6.038695 3.373083 -14.173611 0
M  V30 36 H 5.476943 3.164469 -12.686340 0
M  V30 37 H 11.397279 6.790227 -9.952328 0
M  V30 38 H 11.283381 7.795672 -5.828341 0
M  V30 39 H 9.676625 7.972411 -6.495549 0
M  V30 40 H 7.688072 8.513274 -13.226112 0
M  V30 41 H 11.754136 5.862900 -7.186717 0
M  V30 42 H 10.255944 5.590260 -6.381538 0
M  V30 43 H 8.974737 1.655795 -13.208741 0
M  V30 44 H 7.546822 1.095366 -12.385156 0
M  V30 45 H 12.288519 8.241940 -8.083750 0
M  V30 46 H 11.323692 9.576675 -7.532853 0
M  V30 47 H 7.437745 0.876716 -18.592059 0
M  V30 48 H 5.950489 1.914739 -18.327493 0
M  V30 49 H 5.599193 -0.742083 -16.374880 0
M  V30 50 H 9.848482 4.593930 -11.067172 0
M  V30 51 H 10.277765 4.930073 -8.822834 0
M  V30 52 H 6.251591 -0.486463 -13.732893 0
M  V30 53 H 7.234021 5.306137 -14.669139 0
M  V30 54 H 10.804714 9.063878 -9.880532 0
M  V30 55 H 9.379548 8.744969 -8.903672 0
M  V30 56 H 8.998860 8.833113 -11.164882 0
M  V30 57 H 8.323882 5.344620 -7.514136 0
M  V30 END ATOM
M  V30 BEGIN BOND
M  V30 1 1 3 1
M  V30 2 1 5 4
M  V30 3 1 7 1
M  V30 4 1 10 6
M  V30 5 2 11 7
M  V30 6 2 13 1
M  V30 7 1 14 8
M  V30 8 1 15 3
M  V30 9 1 15 4
M  V30 10 1 16 8
M  V30 11 1 17 11
M  V30 12 1 17 13
M  V30 13 1 18 13
M  V30 14 2 19 10
M  V30 15 1 20 11
M  V30 16 1 21 2
M  V30 17 1 21 6
M  V30 18 1 21 14
M  V30 19 1 24 3
M  V30 20 2 24 18
M  V30 21 1 25 12
M  V30 22 1 25 20
M  V30 23 1 25 22
M  V30 24 1 25 23
M  V30 25 1 27 6
M  V30 26 1 27 16
M  V30 27 1 28 9
M  V30 28 1 28 26
M  V30 29 1 29 4
M  V30 30 2 30 9
M  V30 31 1 30 10
M  V30 32 1 31 19
M  V30 33 2 31 28
M  V30 34 1 31 29
M  V30 35 1 32 2
M  V30 36 1 33 2
M  V30 37 1 4 34 CFG=1
M  V30 38 1 35 5
M  V30 39 1 36 5
M  V30 40 1 6 37 CFG=3
M  V30 41 1 38 8
M  V30 42 1 39 8
M  V30 43 1 40 9
M  V30 44 1 41 14
M  V30 45 1 42 14
M  V30 46 1 43 15
M  V30 47 1 44 15
M  V30 48 1 45 16
M  V30 49 1 46 16
M  V30 50 1 47 17
M  V30 51 1 48 17
M  V30 52 1 49 18
M  V30 53 1 50 19
M  V30 54 1 21 51 CFG=3
M  V30 55 1 52 24
M  V30 56 1 53 26
M  V30 57 1 54 27
M  V30 58 1 55 27
M  V30 59 1 56 30
M  V30 60 1 57 2
M  V30 END BOND
M  V30 END CTAB
M  END
>  <i_epik_Tot_Q>  (1) 
1

>  <i_epik_Tot_abs_Q>  (1) 
1

>  <i_i_glide_confnum>  (1) 
61

>  <i_i_glide_lignum>  (1) 
25

>  <i_i_glide_posenum>  (1) 
298

>  <i_i_glide_rotatable_bonds>  (1) 
8

>  <i_lp_mmshare_version>  (1) 
72125

>  <i_m_source_file_index>  (1) 
14

>  <i_f3d_flags>  (1) 
0

>  <num_sample>  (1) 
100

>  <b_lp_Chiralities_Consistent>  (1) 
1

>  <r_epik_Charging_Adjusted_Penalty>  (1) 
0.0019488154280528094

>  <r_epik_Ionization_Penalty>  (1) 
0.0073063651558797956

>  <r_epik_Ionization_Penalty_Charging>  (1) 
0.0019488154280528094

>  <r_epik_Ionization_Penalty_Neutral>  (1) 
0.0053575497278269858

>  <r_epik_State_Penalty>  (1) 
-0

>  <r_glide_ring_energy>  (1) 
0

>  <r_i_docking_score>  (1) 
-5.7395775615249489

>  <r_i_glide_ecoul>  (1) 
-3.8060764687580777

>  <r_i_glide_eff_state_penalty>  (1) 
-0

>  <r_i_glide_einternal>  (1) 
12.660358438271999

>  <r_i_glide_emodel>  (1) 
-40.754315342440989

>  <r_i_glide_emodel_strain>  (1) 
1.4879371031698838

>  <r_i_glide_energy>  (1) 
-35.635141802374925

>  <r_i_glide_erotb>  (1) 
0.43404420260612414

>  <r_i_glide_esite>  (1) 
-0.086790802306657158

>  <r_i_glide_evdw>  (1) 
-31.82906533361685

>  <r_i_glide_gscore>  (1) 
-5.7395775615249489

>  <r_i_glide_gscore_strain>  (1) 
0

>  <r_i_glide_hbond>  (1) 
-0.20568503950205397

>  <r_i_glide_ligand_efficiency>  (1) 
-0.18514766327499835

>  <r_i_glide_ligand_efficiency_ln>  (1) 
-1.2944506370517146

>  <r_i_glide_ligand_efficiency_sa>  (1) 
-0.5816192872475564

>  <r_i_glide_lipo>  (1) 
-1.4284583418329115

>  <r_i_glide_metal>  (1) 
-0

>  <r_i_glide_rewards>  (1) 
-2.2903228434948955

>  <r_lp_Energy>  (1) 
39.564299999999996

>  <r_lp_tautomer_probability>  (1) 
1

>  <s_epik_Chemistry_Notes>  (1) 
This compound has an imine and may undergo hydrolysis. This compound contains an acetal/aminal-like group ( X-CH(R)-Y where X, Y are N, S, or O) that may be acid/base labile, releasing an aldehyde.

>  <s_epik_cmdline>  (1) 
J2VwaWtfcHl0aG9uJywgJy1waHQnLCAnMS4wJywgJy1waCcsICc3LjQnLCAnLXRuJywgJzgnLCAnLW1hJywgJzUwMCcsICctaW1hZScsICc8aW5maWxlLm1hZT4nLCAnLW9tYWUnLCAnPG91dGZpbGUubWFlPic=

>  <s_epik_input>  (1) 
RkMoRikoRilPQyg9TjEpW0NIMl1jKGMxMilbY0hdW2NIXW4yW0NIMl1bQ0BIXShbTkgyXSlPYyhjKFtPSF0pW2NIXVtjSF0zKVtjSF1jM1tDQEBIXTRbQ0BIXShbTkgyXSlbQ0gyXVtDSDJdW0NIMl1bQ0gyXTQ=

>  <s_glide_docking_method>  (1) 
confgen

>  <s_i_glide_gridfile>  (1) 
gpcr_drd2_6luq_protein_autoprepared_prepared

>  <s_lp_Force_Field>  (1) 
S-OPLS

>  <s_lp_Variant>  (1) 
DiffSBDD_13-1

>  <s_m_source_file>  (1) 
generated_generic_title2_ligand_DiffSBDD_2026-06-23_prepared.sdf

>  <GenAI_Model>  (1) 
DiffSBDD

>  <Protein>  (1) 
generic_title2

$$$$
DiffSBDD_66
     RDKit          3D

  0  0  0  0  0  0  0  0  0  0999 V3000
M  V30 BEGIN CTAB
M  V30 COUNTS 37 39 0 0 1
M  V30 BEGIN ATOM
M  V30 1 F 9.870766 1.806309 -17.185024 0
M  V30 2 C 7.299466 0.462648 -16.520830 0
M  V30 3 N 8.819036 4.862200 -11.291801 0
M  V30 4 C 7.487682 1.862530 -17.219838 0 CFG=2
M  V30 5 C 8.821594 2.029536 -17.972327 0
M  V30 6 C 6.981952 2.115740 -13.451079 0
M  V30 7 N 7.120813 0.358932 -15.238042 0
M  V30 8 F 8.860938 1.170040 -18.990491 0
M  V30 9 C 8.905748 4.623399 -13.659015 0 CFG=1
M  V30 10 C 7.454370 4.005415 -15.756860 0
M  V30 11 O 9.375410 7.035809 -10.384673 0
M  V30 12 C 7.477829 4.501114 -14.273504 0 CFG=1
M  V30 13 C 7.635252 5.422043 -10.668661 0 CFG=2
M  V30 14 C 6.547065 3.594989 -13.427478 0
M  V30 15 F 8.909862 3.261314 -18.472468 0
M  V30 16 C 8.990555 5.701857 -10.095817 0 CFG=1
M  V30 17 C 7.375443 2.488589 -15.883588 0
M  V30 18 O 9.775581 5.190227 -14.601771 0
M  V30 19 N 9.034174 5.540471 -12.522980 0
M  V30 20 O 6.975408 4.390233 -9.985025 0
M  V30 21 C 7.176221 1.676759 -14.884201 0
M  V30 22 H 7.328692 -0.407321 -17.181951 0
M  V30 23 H 6.623377 2.098609 -17.841149 0
M  V30 24 H 6.225234 1.491529 -12.974316 0
M  V30 25 H 7.909463 1.966321 -12.897478 0
M  V30 26 H 9.311095 3.648199 -13.390887 0
M  V30 27 H 6.575404 4.417281 -16.247171 0
M  V30 28 H 8.295667 4.381517 -16.334794 0
M  V30 29 H 8.696542 7.590225 -10.006097 0
M  V30 30 H 7.056089 5.507250 -14.278931 0
M  V30 31 H 7.023104 6.175637 -11.164276 0
M  V30 32 H 6.460914 3.940336 -12.406544 0
M  V30 33 H 5.535741 3.669979 -13.826737 0
M  V30 34 H 9.267002 5.297902 -9.123730 0
M  V30 35 H 10.654037 4.887000 -14.392953 0
M  V30 36 H 8.424236 6.349321 -12.619916 0
M  V30 37 H 6.476332 4.762415 -9.266848 0
M  V30 END ATOM
M  V30 BEGIN BOND
M  V30 1 1 4 2
M  V30 2 1 5 1
M  V30 3 1 5 4
M  V30 4 2 7 2
M  V30 5 1 8 5
M  V30 6 1 12 9
M  V30 7 1 12 10
M  V30 8 1 13 3
M  V30 9 1 14 6
M  V30 10 1 14 12
M  V30 11 1 15 5
M  V30 12 1 16 3
M  V30 13 1 16 11
M  V30 14 1 16 13
M  V30 15 1 17 4
M  V30 16 1 17 10
M  V30 17 1 18 9
M  V30 18 1 19 3
M  V30 19 1 19 9
M  V30 20 1 20 13
M  V30 21 1 21 6
M  V30 22 1 21 7
M  V30 23 2 21 17
M  V30 24 1 22 2
M  V30 25 1 4 23 CFG=3
M  V30 26 1 24 6
M  V30 27 1 25 6
M  V30 28 1 9 26 CFG=1
M  V30 29 1 27 10
M  V30 30 1 28 10
M  V30 31 1 29 11
M  V30 32 1 12 30 CFG=3
M  V30 33 1 13 31 CFG=3
M  V30 34 1 32 14
M  V30 35 1 33 14
M  V30 36 1 16 34 CFG=1
M  V30 37 1 35 18
M  V30 38 1 36 19
M  V30 39 1 37 20
M  V30 END BOND
M  V30 END CTAB
M  END
>  <i_epik_Tot_Q>  (1) 
0

>  <i_epik_Tot_abs_Q>  (1) 
0

>  <i_i_glide_confnum>  (1) 
7

>  <i_i_glide_lignum>  (1) 
108

>  <i_i_glide_posenum>  (1) 
270

>  <i_i_glide_rotatable_bonds>  (1) 
7

>  <i_lp_mmshare_version>  (1) 
72125

>  <i_m_source_file_index>  (1) 
67

>  <i_f3d_flags>  (1) 
0

>  <num_sample>  (1) 
100

>  <b_lp_Chiralities_Consistent>  (1) 
1

>  <r_epik_Charging_Adjusted_Penalty>  (1) 
0

>  <r_epik_Ionization_Penalty>  (1) 
9.0569377288722374e-07

>  <r_epik_Ionization_Penalty_Charging>  (1) 
0

>  <r_epik_Ionization_Penalty_Neutral>  (1) 
9.0569377288722374e-07

>  <r_epik_State_Penalty>  (1) 
-0

>  <r_glide_ring_energy>  (1) 
1.8196566873674958

>  <r_i_docking_score>  (1) 
-5.7354136932936139

>  <r_i_glide_ecoul>  (1) 
-10.258053454054075

>  <r_i_glide_eff_state_penalty>  (1) 
-0

>  <r_i_glide_einternal>  (1) 
2.3952269108420587

>  <r_i_glide_emodel>  (1) 
-39.147506509963826

>  <r_i_glide_emodel_strain>  (1) 
1.8550377439011072

>  <r_i_glide_energy>  (1) 
-30.37502672090606

>  <r_i_glide_erotb>  (1) 
0.58731731641866725

>  <r_i_glide_esite>  (1) 
-0.16672768791426737

>  <r_i_glide_evdw>  (1) 
-20.116973266851986

>  <r_i_glide_gscore>  (1) 
-5.7354136932936139

>  <r_i_glide_gscore_strain>  (1) 
0

>  <r_i_glide_hbond>  (1) 
-0.71999999999999997

>  <r_i_glide_ligand_efficiency>  (1) 
-0.27311493777588636

>  <r_i_glide_ligand_efficiency_ln>  (1) 
-1.4180694461722305

>  <r_i_glide_ligand_efficiency_sa>  (1) 
-0.75350340476071842

>  <r_i_glide_lipo>  (1) 
-0.97043784946049061

>  <r_i_glide_metal>  (1) 
-0

>  <r_i_glide_rewards>  (1) 
-1.921008790886813

>  <r_lp_Energy>  (1) 
5.5804089999999995

>  <r_lp_tautomer_probability>  (1) 
1

>  <s_epik_Chemistry_Notes>  (1) 
This compound has an imine and may undergo hydrolysis. This compound contains an acetal/aminal-like group ( X-CH(R)-Y where X, Y are N, S, or O) that may be acid/base labile, releasing an aldehyde.

>  <s_epik_cmdline>  (1) 
J2VwaWtfcHl0aG9uJywgJy1waHQnLCAnMS4wJywgJy1waCcsICc3LjQnLCAnLXRuJywgJzgnLCAnLW1hJywgJzUwMCcsICctaW1hZScsICc8aW5maWxlLm1hZT4nLCAnLW9tYWUnLCAnPG91dGZpbGUubWFlPic=

>  <s_epik_input>  (1) 
RkMoRikoRilbQ0BIXTFbQ0hdPU5DKD1DMTIpW0NIMl1bQ0gyXVtDQEhdKFtDSDJdMilbQ0BASF0oW09IXSlbTkhdTjNbQ0BASF0oW09IXSlbQ0hdM1tPSF0=

>  <s_glide_docking_method>  (1) 
confgen

>  <s_i_glide_gridfile>  (1) 
gpcr_drd2_6luq_protein_autoprepared_prepared

>  <s_lp_Force_Field>  (1) 
S-OPLS

>  <s_lp_Variant>  (1) 
DiffSBDD_66-1

>  <s_m_source_file>  (1) 
generated_generic_title2_ligand_DiffSBDD_2026-06-23_prepared.sdf

>  <GenAI_Model>  (1) 
DiffSBDD

>  <Protein>  (1) 
generic_title2

$$$$
DiffSBDD_93
     RDKit          3D

  0  0  0  0  0  0  0  0  0  0999 V3000
M  V30 BEGIN CTAB
M  V30 COUNTS 69 73 0 0 1
M  V30 BEGIN ATOM
M  V30 1 C 9.861797 7.297025 -7.881838 0 CFG=1
M  V30 2 C 8.038964 4.976734 -15.922098 0
M  V30 3 C 12.175374 8.055730 -3.448976 0
M  V30 4 O 6.518536 5.970580 -20.263834 0
M  V30 5 C 8.348506 5.201565 -8.275996 0
M  V30 6 C 7.400223 4.672271 -9.380084 0
M  V30 7 C 6.012512 6.320274 -17.374050 0
M  V30 8 C 10.977221 8.635349 -9.945182 0
M  V30 9 N 8.975411 6.457480 -8.728490 0 CFG=2 CHG=1
M  V30 10 C 5.985332 6.345970 -15.956570 0
M  V30 11 C 8.009586 4.985909 -17.321450 0
M  V30 12 C 11.665564 8.828222 -6.100452 0
M  V30 13 C 10.459330 6.635959 -6.592670 0 CFG=1
M  V30 14 C 7.241329 5.490548 -19.392838 0
M  V30 15 C 11.477995 7.189972 -4.312068 0
M  V30 16 C 12.131913 9.518553 -9.515273 0
M  V30 17 O 11.356725 5.623763 -6.948048 0
M  V30 18 C 10.791955 7.377704 -9.127149 0 CFG=2
M  V30 19 C 7.006873 5.672230 -15.216153 0
M  V30 20 C 7.052289 5.622343 -17.997967 0
M  V30 21 C 12.591327 9.310276 -3.908856 0
M  V30 22 N 8.351874 4.747961 -19.554419 0
M  V30 23 C 9.041476 4.291187 -18.242943 0
M  V30 24 C 8.225220 5.345758 -13.131675 0
M  V30 25 N 6.982131 5.703851 -13.808041 0
M  V30 26 C 9.947362 6.287970 -9.770497 0 CFG=2
M  V30 27 C 8.184758 5.659058 -11.617257 0 CFG=2
M  V30 28 C 11.213939 7.577541 -5.645429 0
M  V30 29 C 9.412617 6.483838 -11.199263 0
M  V30 30 O 11.059770 5.990239 -3.857213 0
M  V30 31 C 8.975488 8.487058 -7.486073 0
M  V30 32 C 7.990481 4.390186 -10.778485 0
M  V30 33 C 12.331478 9.692869 -5.236302 0
M  V30 34 H 8.824291 4.454048 -15.398573 0
M  V30 35 H 12.376425 7.760359 -2.429973 0
M  V30 36 H 7.775087 5.406076 -7.373493 0
M  V30 37 H 9.090848 4.449079 -8.010141 0
M  V30 38 H 6.974897 3.748024 -9.001602 0
M  V30 39 H 6.575553 5.367307 -9.543785 0
M  V30 40 H 5.252491 6.824541 -17.954229 0
M  V30 41 H 10.044738 9.190221 -9.984899 0
M  V30 42 H 11.201199 8.339357 -10.963421 0
M  V30 43 H 5.199295 6.875561 -15.439720 0
M  V30 44 H 11.489813 9.130760 -7.110376 0
M  V30 45 H 9.649352 6.179369 -6.021351 0
M  V30 46 H 12.575245 9.990293 -10.384911 0
M  V30 47 H 12.926775 8.959334 -9.020891 0
M  V30 48 H 11.775413 10.309230 -8.863236 0
M  V30 49 H 12.214412 6.009345 -7.034862 0
M  V30 50 H 11.773486 6.950697 -8.934306 0
M  V30 51 H 13.110529 9.983656 -3.243930 0
M  V30 52 H 8.721315 4.499203 -20.460560 0
M  V30 53 H 10.043674 4.704269 -18.128280 0
M  V30 54 H 9.040680 3.207008 -18.122456 0
M  V30 55 H 8.448196 4.288949 -13.284808 0
M  V30 56 H 9.027554 5.909689 -13.608106 0
M  V30 57 H 6.347933 6.338268 -13.343398 0
M  V30 58 H 10.352163 5.304974 -9.584998 0
M  V30 59 H 7.319750 6.300598 -11.436709 0
M  V30 60 H 9.146889 7.523434 -11.388005 0
M  V30 61 H 10.240519 6.267564 -11.876592 0
M  V30 62 H 11.353018 5.766414 -2.985964 0
M  V30 63 H 9.450937 9.257150 -6.909914 0
M  V30 64 H 8.175385 8.158437 -6.830576 0
M  V30 65 H 8.575431 9.007228 -8.351114 0
M  V30 66 H 8.911683 3.804892 -10.739820 0
M  V30 67 H 7.262002 3.774938 -11.309016 0
M  V30 68 H 12.641283 10.653876 -5.595507 0
M  V30 69 H 8.226995 7.065084 -9.080767 0
M  V30 END ATOM
M  V30 BEGIN BOND
M  V30 1 1 6 5
M  V30 2 1 9 1
M  V30 3 1 9 5
M  V30 4 2 10 7
M  V30 5 1 11 2
M  V30 6 1 13 1
M  V30 7 2 14 4
M  V30 8 2 15 3
M  V30 9 1 16 8
M  V30 10 1 17 13
M  V30 11 1 18 1
M  V30 12 1 18 8
M  V30 13 2 19 2
M  V30 14 1 19 10
M  V30 15 1 20 7
M  V30 16 2 20 11
M  V30 17 1 20 14
M  V30 18 1 21 3
M  V30 19 1 22 14
M  V30 20 1 23 11
M  V30 21 1 23 22
M  V30 22 1 25 19
M  V30 23 1 25 24
M  V30 24 1 26 9
M  V30 25 1 26 18
M  V30 26 1 27 24
M  V30 27 2 28 12
M  V30 28 1 28 13
M  V30 29 1 28 15
M  V30 30 1 29 26
M  V30 31 1 29 27
M  V30 32 1 30 15
M  V30 33 1 1 31 CFG=1
M  V30 34 1 32 6
M  V30 35 1 32 27
M  V30 36 1 33 12
M  V30 37 2 33 21
M  V30 38 1 34 2
M  V30 39 1 35 3
M  V30 40 1 36 5
M  V30 41 1 37 5
M  V30 42 1 38 6
M  V30 43 1 39 6
M  V30 44 1 40 7
M  V30 45 1 41 8
M  V30 46 1 42 8
M  V30 47 1 43 10
M  V30 48 1 44 12
M  V30 49 1 13 45 CFG=1
M  V30 50 1 46 16
M  V30 51 1 47 16
M  V30 52 1 48 16
M  V30 53 1 49 17
M  V30 54 1 18 50 CFG=1
M  V30 55 1 51 21
M  V30 56 1 52 22
M  V30 57 1 53 23
M  V30 58 1 54 23
M  V30 59 1 55 24
M  V30 60 1 56 24
M  V30 61 1 57 25
M  V30 62 1 26 58 CFG=3
M  V30 63 1 27 59 CFG=3
M  V30 64 1 60 29
M  V30 65 1 61 29
M  V30 66 1 62 30
M  V30 67 1 63 31
M  V30 68 1 64 31
M  V30 69 1 65 31
M  V30 70 1 66 32
M  V30 71 1 67 32
M  V30 72 1 68 33
M  V30 73 1 9 69 CFG=3
M  V30 END BOND
M  V30 END CTAB
M  END
>  <i_epik_Tot_Q>  (1) 
1

>  <i_epik_Tot_abs_Q>  (1) 
1

>  <i_i_glide_confnum>  (1) 
108

>  <i_i_glide_lignum>  (1) 
177

>  <i_i_glide_posenum>  (1) 
200

>  <i_i_glide_rotatable_bonds>  (1) 
8

>  <i_lp_mmshare_version>  (1) 
72125

>  <i_m_source_file_index>  (1) 
94

>  <i_f3d_flags>  (1) 
0

>  <num_sample>  (1) 
100

>  <b_lp_Chiralities_Consistent>  (1) 
1

>  <r_epik_Charging_Adjusted_Penalty>  (1) 
0.009895405337619817

>  <r_epik_Ionization_Penalty>  (1) 
0.010018489252536679

>  <r_epik_Ionization_Penalty_Charging>  (1) 
0.00060073207358730301

>  <r_epik_Ionization_Penalty_Neutral>  (1) 
0.0094177571789493767

>  <r_epik_State_Penalty>  (1) 
0.0092946732640325144

>  <r_glide_ring_energy>  (1) 
0

>  <r_i_docking_score>  (1) 
-5.7319595455556778

>  <r_i_glide_ecoul>  (1) 
-6.3921086661075597

>  <r_i_glide_eff_state_penalty>  (1) 
0.0092946732640325144

>  <r_i_glide_einternal>  (1) 
12.147684804052215

>  <r_i_glide_emodel>  (1) 
-23.737490739980558

>  <r_i_glide_emodel_strain>  (1) 
4.2617364411488268

>  <r_i_glide_energy>  (1) 
-23.687507027542917

>  <r_i_glide_erotb>  (1) 
0.49373930985115227

>  <r_i_glide_esite>  (1) 
-0.098873465465251761

>  <r_i_glide_evdw>  (1) 
-17.295398361435357

>  <r_i_glide_gscore>  (1) 
-5.7412542188197104

>  <r_i_glide_gscore_strain>  (1) 
0.065434110287206693

>  <r_i_glide_hbond>  (1) 
-0.20000000000000001

>  <r_i_glide_ligand_efficiency>  (1) 
-0.1736957438047175

>  <r_i_glide_ligand_efficiency_ln>  (1) 
-1.274758124433415

>  <r_i_glide_ligand_efficiency_sa>  (1) 
-0.55713506122779133

>  <r_i_glide_lipo>  (1) 
-2.8809863097210231

>  <r_i_glide_metal>  (1) 
-0

>  <r_i_glide_rewards>  (1) 
-1.2969816457838923

>  <r_lp_Energy>  (1) 
49.614931999999996

>  <r_lp_tautomer_probability>  (1) 
0.99999999999736477

>  <s_epik_cmdline>  (1) 
J2VwaWtfcHl0aG9uJywgJy1waHQnLCAnMS4wJywgJy1waCcsICc3LjQnLCAnLXRuJywgJzgnLCAnLW1hJywgJzUwMCcsICctaW1hZScsICc8aW5maWxlLm1hZT4nLCAnLW9tYWUnLCAnPG91dGZpbGUubWFlPic=

>  <s_epik_input>  (1) 
W09IXWMxW2NIXVtjSF1bY0hdW2NIXWMxW0NASF0oW09IXSlbQ0BAXTIoW0NIM10pW0NASF0oW0NIMl1bQ0gzXSlbQ0BASF0oTjIzKVtDSDJdW0NASF0oW0NIMl1bQ0gyXVtDSDJdMylbQ0gyXVtOSF1jKFtjSF00KVtjSF1bY0hdYyhjNDUpQyg9TylbTkhdW0NIMl01

>  <s_glide_docking_method>  (1) 
confgen

>  <s_i_glide_gridfile>  (1) 
gpcr_drd2_6luq_protein_autoprepared_prepared

>  <s_lp_Force_Field>  (1) 
S-OPLS

>  <s_lp_Variant>  (1) 
DiffSBDD_93-2

>  <s_m_source_file>  (1) 
generated_generic_title2_ligand_DiffSBDD_2026-06-23_prepared.sdf

>  <GenAI_Model>  (1) 
DiffSBDD

>  <Protein>  (1) 
generic_title2

$$$$
DiffSBDD_19
     RDKit          3D

  0  0  0  0  0  0  0  0  0  0999 V3000
M  V30 BEGIN CTAB
M  V30 COUNTS 40 43 0 0 1
M  V30 BEGIN ATOM
M  V30 1 C 11.218824 8.119301 -5.865190 0 CFG=1
M  V30 2 C 9.775401 6.008428 -10.952268 0 CFG=1
M  V30 3 N 11.168344 8.133674 -9.425376 0
M  V30 4 C 7.735830 5.367049 -13.950304 0 CFG=2
M  V30 5 O 10.143957 7.215537 -5.585358 0
M  V30 6 C 10.775667 7.037228 -11.469240 0 CFG=1
M  V30 7 C 11.827557 8.478672 -8.295974 0
M  V30 8 C 7.792206 7.543330 -12.759655 0
M  V30 9 C 7.272989 6.790243 -13.697039 0
M  V30 10 C 11.375409 6.604282 -5.942665 0
M  V30 11 F 11.070544 9.990229 -4.419640 0
M  V30 12 C 9.442458 7.496523 -10.913718 0 CFG=2
M  V30 13 C 11.005466 8.984841 -7.102602 0
M  V30 14 C 9.128101 4.889047 -11.780285 0
M  V30 15 C 9.100882 4.986872 -13.323176 0
M  V30 16 C 11.776692 8.886956 -4.676348 0
M  V30 17 C 9.720819 8.192793 -9.581263 0
M  V30 18 F 7.827124 5.164100 -15.264485 0
M  V30 19 C 8.443559 8.164187 -11.807403 0
M  V30 20 C 11.864186 7.589692 -10.569644 0
M  V30 21 O 13.048139 8.390194 -8.196719 0
M  V30 22 H 9.980708 5.619175 -9.955954 0
M  V30 23 H 6.958436 4.685325 -13.603469 0
M  V30 24 H 10.946778 7.121880 -12.539273 0
M  V30 25 H 6.501733 7.169486 -14.350992 0
M  V30 26 H 11.347496 6.091247 -6.902146 0
M  V30 27 H 11.852281 6.069503 -5.124191 0
M  V30 28 H 11.375481 9.989275 -6.893635 0
M  V30 29 H 9.936638 9.096980 -7.271323 0
M  V30 30 H 8.123845 4.711749 -11.393816 0
M  V30 31 H 9.684622 3.984194 -11.533099 0
M  V30 32 H 9.336913 3.990298 -13.693726 0
M  V30 33 H 9.903949 5.608437 -13.711822 0
M  V30 34 H 11.775432 8.267608 -3.779072 0
M  V30 35 H 12.801986 9.197156 -4.879121 0
M  V30 36 H 9.207546 7.647905 -8.786727 0
M  V30 37 H 9.364953 9.221024 -9.587105 0
M  V30 38 H 8.214825 9.190222 -11.577229 0
M  V30 39 H 12.525783 6.795467 -10.234022 0
M  V30 40 H 12.467457 8.348038 -11.067981 0
M  V30 END ATOM
M  V30 BEGIN BOND
M  V30 1 1 5 1
M  V30 2 1 6 2
M  V30 3 1 7 3
M  V30 4 1 9 4
M  V30 5 2 9 8
M  V30 6 1 10 1
M  V30 7 1 10 5
M  V30 8 1 12 2
M  V30 9 1 12 6
M  V30 10 1 1 13 CFG=3
M  V30 11 1 13 7
M  V30 12 1 14 2
M  V30 13 1 15 4
M  V30 14 1 15 14
M  V30 15 1 16 1
M  V30 16 1 16 11
M  V30 17 1 17 3
M  V30 18 1 12 17 CFG=1
M  V30 19 1 18 4
M  V30 20 2 19 8
M  V30 21 1 19 12
M  V30 22 1 20 3
M  V30 23 1 20 6
M  V30 24 2 21 7
M  V30 25 1 2 22 CFG=1
M  V30 26 1 4 23 CFG=1
M  V30 27 1 6 24 CFG=3
M  V30 28 1 25 9
M  V30 29 1 26 10
M  V30 30 1 27 10
M  V30 31 1 28 13
M  V30 32 1 29 13
M  V30 33 1 30 14
M  V30 34 1 31 14
M  V30 35 1 32 15
M  V30 36 1 33 15
M  V30 37 1 34 16
M  V30 38 1 35 16
M  V30 39 1 36 17
M  V30 40 1 37 17
M  V30 41 1 38 19
M  V30 42 1 39 20
M  V30 43 1 40 20
M  V30 END BOND
M  V30 END CTAB
M  END
>  <i_epik_Tot_Q>  (1) 
0

>  <i_epik_Tot_abs_Q>  (1) 
0

>  <i_i_glide_confnum>  (1) 
10

>  <i_i_glide_lignum>  (1) 
36

>  <i_i_glide_posenum>  (1) 
145

>  <i_i_glide_rotatable_bonds>  (1) 
4

>  <i_lp_mmshare_version>  (1) 
72125

>  <i_m_source_file_index>  (1) 
20

>  <i_f3d_flags>  (1) 
0

>  <num_sample>  (1) 
100

>  <b_lp_Chiralities_Consistent>  (1) 
1

>  <r_epik_Charging_Adjusted_Penalty>  (1) 
0

>  <r_epik_Ionization_Penalty>  (1) 
4.7432699255447401e-09

>  <r_epik_Ionization_Penalty_Charging>  (1) 
0

>  <r_epik_Ionization_Penalty_Neutral>  (1) 
4.7432699255447401e-09

>  <r_epik_State_Penalty>  (1) 
-0

>  <r_glide_ring_energy>  (1) 
0

>  <r_i_docking_score>  (1) 
-5.7315654142930885

>  <r_i_glide_ecoul>  (1) 
0.30924465643835908

>  <r_i_glide_eff_state_penalty>  (1) 
-0

>  <r_i_glide_einternal>  (1) 
4.1820377969228453

>  <r_i_glide_emodel>  (1) 
-34.19822327885695

>  <r_i_glide_emodel_strain>  (1) 
0

>  <r_i_glide_energy>  (1) 
-27.042091882151283

>  <r_i_glide_erotb>  (1) 
0.62952724297124418

>  <r_i_glide_esite>  (1) 
0

>  <r_i_glide_evdw>  (1) 
-27.351336538589642

>  <r_i_glide_gscore>  (1) 
-5.7315654142930885

>  <r_i_glide_gscore_strain>  (1) 
0

>  <r_i_glide_hbond>  (1) 
0

>  <r_i_glide_ligand_efficiency>  (1) 
-0.272931686394909

>  <r_i_glide_ligand_efficiency_ln>  (1) 
-1.4171179669655307

>  <r_i_glide_ligand_efficiency_sa>  (1) 
-0.75299782809538462

>  <r_i_glide_lipo>  (1) 
-1.7295738586898335

>  <r_i_glide_metal>  (1) 
-0

>  <r_i_glide_rewards>  (1) 
-3.3103386701107707

>  <r_lp_Energy>  (1) 
2.731881

>  <r_lp_tautomer_probability>  (1) 
1

>  <s_epik_cmdline>  (1) 
J2VwaWtfcHl0aG9uJywgJy1waHQnLCAnMS4wJywgJy1waCcsICc3LjQnLCAnLXRuJywgJzgnLCAnLW1hJywgJzUwMCcsICctaW1hZScsICc8aW5maWxlLm1hZT4nLCAnLW9tYWUnLCAnPG91dGZpbGUubWFlPic=

>  <s_epik_input>  (1) 
W0NIMl0xT0MxKFtDSDJdRilbQ0gyXUMoPU8pTihbQ0gyXTIpW0NIMl1bQ0BIXTNbQ0BASF0oQzIzNClbQ0gyXVtDSDJdW0NASF0oRilbQ0hdPUM9W0NIXTQ=

>  <s_glide_docking_method>  (1) 
confgen

>  <s_i_glide_gridfile>  (1) 
gpcr_drd2_6luq_protein_autoprepared_prepared

>  <s_lp_Force_Field>  (1) 
S-OPLS

>  <s_lp_Variant>  (1) 
DiffSBDD_19-1

>  <s_m_source_file>  (1) 
generated_generic_title2_ligand_DiffSBDD_2026-06-23_prepared.sdf

>  <GenAI_Model>  (1) 
DiffSBDD

>  <Protein>  (1) 
generic_title2

$$$$
DiffSBDD_49
     RDKit          3D

  0  0  0  0  0  0  0  0  0  0999 V3000
M  V30 BEGIN CTAB
M  V30 COUNTS 60 61 0 0 1
M  V30 BEGIN ATOM
M  V30 1 C 7.835085 6.002381 -18.582443 0
M  V30 2 C 6.512493 6.300978 -18.187068 0
M  V30 3 C 5.446680 6.083551 -19.087107 0
M  V30 4 C 11.380996 7.356697 -4.600019 0
M  V30 5 N 8.651076 4.391067 -12.067986 0
M  V30 6 C 9.904389 7.033192 -9.583912 0
M  V30 7 O 10.335448 7.989987 -10.229596 0
M  V30 8 F 4.178677 6.390371 -18.720353 0
M  V30 9 C 7.291278 4.772245 -15.686271 0
M  V30 10 C 6.837614 6.855811 -14.370072 0
M  V30 11 O 12.315057 7.990168 -7.737862 0
M  V30 12 C 5.700888 5.553946 -20.371697 0
M  V30 13 C 7.026025 5.255806 -20.759873 0
M  V30 14 C 6.231758 6.877168 -16.798563 0
M  V30 15 C 11.542200 6.438691 -3.379787 0
M  V30 16 C 8.916663 6.066288 -10.231304 0
M  V30 17 C 9.595824 5.147810 -11.249072 0
M  V30 18 S 10.943836 7.675775 -7.309900 0
M  V30 19 C 4.549018 5.311622 -21.333591 0
M  V30 20 O 9.375212 3.190165 -12.385052 0
M  V30 21 C 6.256078 5.927891 -12.196383 0
M  V30 22 N 10.173481 6.686754 -8.310906 0 CHG=-1
M  V30 23 N 5.375432 5.659659 -11.496274 0
M  V30 24 C 8.289097 5.030546 -13.347914 0 CFG=2
M  V30 25 F 4.697959 4.194068 -22.043926 0
M  V30 26 C 7.380113 6.256302 -13.093356 0 CFG=1
M  V30 27 O 10.107037 8.790136 -6.842570 0
M  V30 28 C 6.793957 6.208442 -15.543473 0
M  V30 29 C 8.089076 5.481575 -19.865464 0
M  V30 30 F 7.277820 4.756630 -21.993875 0
M  V30 31 C 12.164759 7.144505 -2.173761 0
M  V30 32 C 7.552080 4.082316 -14.329459 0
M  V30 33 C 11.114643 6.558725 -5.872605 0
M  V30 34 H 8.655425 6.176809 -17.903884 0
M  V30 35 H 12.252044 7.990254 -4.726616 0
M  V30 36 H 10.579246 8.073194 -4.468355 0
M  V30 37 H 8.224906 4.775099 -16.245405 0
M  V30 38 H 6.575417 4.191390 -16.261656 0
M  V30 39 H 6.470738 7.867931 -14.308494 0
M  V30 40 H 5.152785 6.921294 -16.646819 0
M  V30 41 H 6.554037 7.918804 -16.785036 0
M  V30 42 H 10.578465 6.006181 -3.107257 0
M  V30 43 H 12.175275 5.594971 -3.646197 0
M  V30 44 H 8.175522 6.696270 -10.699012 0
M  V30 45 H 8.374344 5.477552 -9.488334 0
M  V30 46 H 10.175357 4.438993 -10.656434 0
M  V30 47 H 10.301932 5.689616 -11.880456 0
M  V30 48 H 3.616530 5.190505 -20.785850 0
M  V30 49 H 4.442239 6.140688 -22.033667 0
M  V30 50 H 10.154467 3.527851 -12.804450 0
M  V30 51 H 9.207189 5.363899 -13.836770 0
M  V30 52 H 7.967734 7.057898 -12.653822 0
M  V30 53 H 9.101944 5.256320 -20.165076 0
M  V30 54 H 12.440425 6.405806 -1.422721 0
M  V30 55 H 13.073002 7.680157 -2.451261 0
M  V30 56 H 11.474155 7.858876 -1.724138 0
M  V30 57 H 8.117231 3.171508 -14.522198 0
M  V30 58 H 6.607230 3.761164 -13.889837 0
M  V30 59 H 10.175790 6.012864 -5.772857 0
M  V30 60 H 11.901808 5.840911 -6.098237 0
M  V30 END ATOM
M  V30 BEGIN BOND
M  V30 1 1 2 1
M  V30 2 2 3 2
M  V30 3 2 7 6
M  V30 4 1 8 3
M  V30 5 1 12 3
M  V30 6 2 13 12
M  V30 7 1 14 2
M  V30 8 1 15 4
M  V30 9 1 16 6
M  V30 10 1 17 5
M  V30 11 1 17 16
M  V30 12 2 18 11
M  V30 13 1 19 12
M  V30 14 1 20 5
M  V30 15 1 22 6
M  V30 16 1 22 18
M  V30 17 3 23 21
M  V30 18 1 24 5
M  V30 19 1 25 19
M  V30 20 1 26 10
M  V30 21 1 26 21
M  V30 22 1 26 24
M  V30 23 2 27 18
M  V30 24 1 28 9
M  V30 25 2 28 10
M  V30 26 1 28 14
M  V30 27 2 29 1
M  V30 28 1 29 13
M  V30 29 1 30 13
M  V30 30 1 31 15
M  V30 31 1 32 9
M  V30 32 1 32 24
M  V30 33 1 33 4
M  V30 34 1 33 18
M  V30 35 1 34 1
M  V30 36 1 35 4
M  V30 37 1 36 4
M  V30 38 1 37 9
M  V30 39 1 38 9
M  V30 40 1 39 10
M  V30 41 1 40 14
M  V30 42 1 41 14
M  V30 43 1 42 15
M  V30 44 1 43 15
M  V30 45 1 44 16
M  V30 46 1 45 16
M  V30 47 1 46 17
M  V30 48 1 47 17
M  V30 49 1 48 19
M  V30 50 1 49 19
M  V30 51 1 50 20
M  V30 52 1 24 51 CFG=3
M  V30 53 1 26 52 CFG=1
M  V30 54 1 53 29
M  V30 55 1 54 31
M  V30 56 1 55 31
M  V30 57 1 56 31
M  V30 58 1 57 32
M  V30 59 1 58 32
M  V30 60 1 59 33
M  V30 61 1 60 33
M  V30 END BOND
M  V30 END CTAB
M  END
>  <i_epik_Tot_Q>  (1) 
-1

>  <i_epik_Tot_abs_Q>  (1) 
1

>  <i_i_glide_confnum>  (1) 
2934

>  <i_i_glide_lignum>  (1) 
79

>  <i_i_glide_posenum>  (1) 
342

>  <i_i_glide_rotatable_bonds>  (1) 
13

>  <i_lp_mmshare_version>  (1) 
72125

>  <i_m_source_file_index>  (1) 
50

>  <i_f3d_flags>  (1) 
0

>  <num_sample>  (1) 
100

>  <b_lp_Chiralities_Consistent>  (1) 
1

>  <r_epik_Charging_Adjusted_Penalty>  (1) 
0.026401540153883577

>  <r_epik_Ionization_Penalty>  (1) 
0.013342793293924158

>  <r_epik_Ionization_Penalty_Charging>  (1) 
0.013200770076941797

>  <r_epik_Ionization_Penalty_Neutral>  (1) 
0.00014202321698236043

>  <r_epik_State_Penalty>  (1) 
0.01320077007694178

>  <r_glide_ring_energy>  (1) 
0

>  <r_i_docking_score>  (1) 
-5.7274694867673244

>  <r_i_glide_ecoul>  (1) 
-3.6040225412019273

>  <r_i_glide_eff_state_penalty>  (1) 
0.01320077007694178

>  <r_i_glide_einternal>  (1) 
15.746592142419717

>  <r_i_glide_emodel>  (1) 
-45.952859783079603

>  <r_i_glide_emodel_strain>  (1) 
1.1376458800989226

>  <r_i_glide_energy>  (1) 
-40.581061633003976

>  <r_i_glide_erotb>  (1) 
0.85852740142568074

>  <r_i_glide_esite>  (1) 
-0.13948939996255436

>  <r_i_glide_evdw>  (1) 
-36.977039091802048

>  <r_i_glide_gscore>  (1) 
-5.7406702568442665

>  <r_i_glide_gscore_strain>  (1) 
0

>  <r_i_glide_hbond>  (1) 
-0.13093423336666393

>  <r_i_glide_ligand_efficiency>  (1) 
-0.17355968141719164

>  <r_i_glide_ligand_efficiency_ln>  (1) 
-1.2737595586071653

>  <r_i_glide_ligand_efficiency_sa>  (1) 
-0.55669863644878093

>  <r_i_glide_lipo>  (1) 
-2.6655567737229076

>  <r_i_glide_metal>  (1) 
-0

>  <r_i_glide_rewards>  (1) 
-1.2737619154474293

>  <r_lp_Energy>  (1) 
33.979248999999996

>  <s_epik_Chemistry_Notes>  (1) 
This compound has a N-S or N-O group and may undergo hydrolysis at high or low pH.

>  <s_epik_cmdline>  (1) 
J2VwaWtfcHl0aG9uJywgJy1waHQnLCAnMS4wJywgJy1waCcsICc3LjQnLCAnLXRuJywgJzgnLCAnLW1hJywgJzUwMCcsICctaW1hZScsICc8aW5maWxlLm1hZT4nLCAnLW9tYWUnLCAnPG91dGZpbGUubWFlPic=

>  <s_epik_input>  (1) 
RmMxYyhbQ0gyXUYpYyhGKVtjSF1bY0hdYzFbQ0gyXUMoW0NIMl1bQ0gyXTIpPVtDSF1bQ0BASF0oQyNOKVtDQEhdMk4oW09IXSlbQ0gyXVtDSDJdQyg9TylbTkhdUyg9TykoPU8pW0NIMl1bQ0gyXVtDSDJdW0NIM10=

>  <s_glide_docking_method>  (1) 
confgen

>  <s_i_glide_gridfile>  (1) 
gpcr_drd2_6luq_protein_autoprepared_prepared

>  <s_lp_Force_Field>  (1) 
S-OPLS

>  <s_lp_Variant>  (1) 
DiffSBDD_49-1

>  <s_m_source_file>  (1) 
generated_generic_title2_ligand_DiffSBDD_2026-06-23_prepared.sdf

>  <GenAI_Model>  (1) 
DiffSBDD

>  <Protein>  (1) 
generic_title2

$$$$
DiffSBDD_63
     RDKit          3D

  0  0  0  0  0  0  0  0  0  0999 V3000
M  V30 BEGIN CTAB
M  V30 COUNTS 47 48 0 0 1
M  V30 BEGIN ATOM
M  V30 1 C 6.065727 6.371472 -18.157137 0
M  V30 2 C 6.322334 6.285372 -15.348164 0
M  V30 3 C 11.741450 8.523320 -7.443374 0
M  V30 4 C 13.026760 8.790227 -7.784646 0
M  V30 5 C 5.467050 7.230537 -15.953854 0
M  V30 6 C 10.157884 6.516077 -11.776702 0
M  V30 7 C 12.044916 9.364449 -3.801077 0
M  V30 8 F 5.939970 6.413582 -19.504492 0
M  V30 9 C 8.151658 5.483632 -12.588944 0
M  V30 10 C 11.009952 7.837737 -9.761614 0
M  V30 11 C 11.291328 8.686712 -6.047744 0
M  V30 12 O 10.175410 8.390228 -5.643173 0
M  V30 13 N 7.828065 6.400253 -13.399624 0
M  V30 14 C 6.823681 4.599426 -10.642150 0
M  V30 15 S 12.204314 7.771582 -2.940475 0
M  V30 16 C 5.337585 7.269277 -17.355325 0
M  V30 17 F 7.877175 4.468119 -15.589752 0
M  V30 18 C 6.924344 5.429925 -17.559802 0
M  V30 19 S 5.775409 4.667698 -13.185025 0
M  V30 20 C 7.197465 4.431271 -12.122387 0 CFG=1
M  V30 21 O 9.410462 5.336710 -12.060826 0
M  V30 22 C 9.988125 6.827241 -10.285054 0
M  V30 23 N 10.784411 8.087519 -8.347811 0
M  V30 24 N 12.241489 9.190227 -5.237337 0
M  V30 25 C 6.451352 6.240023 -13.826542 0 CFG=2
M  V30 26 C 7.053631 5.381570 -16.158187 0
M  V30 27 H 4.909053 7.924732 -15.342876 0
M  V30 28 H 11.203220 6.298661 -11.993622 0
M  V30 29 H 9.906108 7.386383 -12.385024 0
M  V30 30 H 12.844350 9.990227 -3.416119 0
M  V30 31 H 11.091986 9.844516 -3.571473 0
M  V30 32 H 12.007900 7.433465 -9.928881 0
M  V30 33 H 10.939708 8.778973 -10.307229 0
M  V30 34 H 7.691693 4.466287 -9.995626 0
M  V30 35 H 6.075126 3.866181 -10.342185 0
M  V30 36 H 6.413540 5.590227 -10.438833 0
M  V30 37 H 12.047132 8.263874 -1.708147 0
M  V30 38 H 4.679654 7.990227 -17.816319 0
M  V30 39 H 7.482357 4.741507 -18.176684 0
M  V30 40 H 7.622832 3.444492 -12.307248 0
M  V30 41 H 10.082715 5.905111 -9.710219 0
M  V30 42 H 8.975411 7.190232 -10.107834 0
M  V30 43 H 13.142190 9.425205 -5.622548 0
M  V30 44 H 5.858759 7.047395 -13.392471 0
M  V30 45 H 13.364734 8.672589 -8.802374 0
M  V30 46 H 13.752883 9.129441 -7.063294 0
M  V30 47 H 9.847548 7.910566 -8.002918 0
M  V30 END ATOM
M  V30 BEGIN BOND
M  V30 1 2 4 3
M  V30 2 1 5 2
M  V30 3 1 8 1
M  V30 4 1 11 3
M  V30 5 2 12 11
M  V30 6 2 13 9
M  V30 7 1 15 7
M  V30 8 1 16 1
M  V30 9 2 16 5
M  V30 10 2 18 1
M  V30 11 1 20 9
M  V30 12 1 20 14
M  V30 13 1 20 19
M  V30 14 1 21 6
M  V30 15 1 21 9
M  V30 16 1 22 6
M  V30 17 1 22 10
M  V30 18 1 23 3
M  V30 19 1 23 10
M  V30 20 1 24 7
M  V30 21 1 24 11
M  V30 22 1 25 2
M  V30 23 1 25 13
M  V30 24 1 25 19
M  V30 25 2 26 2
M  V30 26 1 26 17
M  V30 27 1 26 18
M  V30 28 1 27 5
M  V30 29 1 28 6
M  V30 30 1 29 6
M  V30 31 1 30 7
M  V30 32 1 31 7
M  V30 33 1 32 10
M  V30 34 1 33 10
M  V30 35 1 34 14
M  V30 36 1 35 14
M  V30 37 1 36 14
M  V30 38 1 37 15
M  V30 39 1 38 16
M  V30 40 1 39 18
M  V30 41 1 20 40 CFG=1
M  V30 42 1 41 22
M  V30 43 1 42 22
M  V30 44 1 43 24
M  V30 45 1 25 44 CFG=1
M  V30 46 1 45 4
M  V30 47 1 46 4
M  V30 48 1 47 23
M  V30 END BOND
M  V30 END CTAB
M  END
>  <i_epik_Tot_Q>  (1) 
0

>  <i_epik_Tot_abs_Q>  (1) 
0

>  <i_i_glide_confnum>  (1) 
508

>  <i_i_glide_lignum>  (1) 
101

>  <i_i_glide_posenum>  (1) 
260

>  <i_i_glide_rotatable_bonds>  (1) 
11

>  <i_lp_mmshare_version>  (1) 
72125

>  <i_m_source_file_index>  (1) 
64

>  <i_f3d_flags>  (1) 
0

>  <num_sample>  (1) 
100

>  <b_lp_Chiralities_Consistent>  (1) 
1

>  <r_epik_Charging_Adjusted_Penalty>  (1) 
0.013849271164821807

>  <r_epik_Ionization_Penalty>  (1) 
0.12391676861929035

>  <r_epik_Ionization_Penalty_Charging>  (1) 
0.013849271164821807

>  <r_epik_Ionization_Penalty_Neutral>  (1) 
0.11006749745446855

>  <r_epik_State_Penalty>  (1) 
-0

>  <r_glide_ring_energy>  (1) 
0

>  <r_i_docking_score>  (1) 
-5.7261726982943095

>  <r_i_glide_ecoul>  (1) 
-0.72609302130000652

>  <r_i_glide_eff_state_penalty>  (1) 
-0

>  <r_i_glide_einternal>  (1) 
4.6824967211240383

>  <r_i_glide_emodel>  (1) 
-57.011502397521213

>  <r_i_glide_emodel_strain>  (1) 
0.034620580147016966

>  <r_i_glide_energy>  (1) 
-43.552368497492211

>  <r_i_glide_erotb>  (1) 
1.2167697096945405

>  <r_i_glide_esite>  (1) 
-0.0012209162842729564

>  <r_i_glide_evdw>  (1) 
-42.826275476192201

>  <r_i_glide_gscore>  (1) 
-5.7261726982943095

>  <r_i_glide_gscore_strain>  (1) 
0

>  <r_i_glide_hbond>  (1) 
0

>  <r_i_glide_ligand_efficiency>  (1) 
-0.22023741147285805

>  <r_i_glide_ligand_efficiency_ln>  (1) 
-1.3447728690892873

>  <r_i_glide_ligand_efficiency_sa>  (1) 
-0.6524524656045585

>  <r_i_glide_lipo>  (1) 
-2.4206601841195092

>  <r_i_glide_metal>  (1) 
-0

>  <r_i_glide_rewards>  (1) 
-2.2708335805804571

>  <r_lp_Energy>  (1) 
17.542904

>  <r_lp_tautomer_probability>  (1) 
1

>  <s_epik_Chemistry_Notes>  (1) 
This compound has an imine and may undergo hydrolysis. This compound contains an acetal/aminal-like group ( X-CH(R)-Y where X, Y are N, S, or O) that may be acid/base labile, releasing an aldehyde.

>  <s_epik_cmdline>  (1) 
J2VwaWtfcHl0aG9uJywgJy1waHQnLCAnMS4wJywgJy1waCcsICc3LjQnLCAnLXRuJywgJzgnLCAnLW1hJywgJzUwMCcsICctaW1hZScsICc8aW5maWxlLm1hZT4nLCAnLW9tYWUnLCAnPG91dGZpbGUubWFlPic=

>  <s_epik_input>  (1) 
RmMxW2NIXVtjSF1jKGMoRilbY0hdMSlbQ0BIXShTW0NAQEhdMltDSDNdKU49QzJPW0NIMl1bQ0gyXVtDSDJdW05IXUMoPVtDSDJdKUMoPU8pW05IXVtDSDJdW1NIXQ==

>  <s_glide_docking_method>  (1) 
confgen

>  <s_i_glide_gridfile>  (1) 
gpcr_drd2_6luq_protein_autoprepared_prepared

>  <s_lp_Force_Field>  (1) 
S-OPLS

>  <s_lp_Variant>  (1) 
DiffSBDD_63-2

>  <s_m_source_file>  (1) 
generated_generic_title2_ligand_DiffSBDD_2026-06-23_prepared.sdf

>  <GenAI_Model>  (1) 
DiffSBDD

>  <Protein>  (1) 
generic_title2

$$$$
DiffSBDD_81
     RDKit          3D

  0  0  0  0  0  0  0  0  0  0999 V3000
M  V30 BEGIN CTAB
M  V30 COUNTS 67 70 0 0 1
M  V30 BEGIN ATOM
M  V30 1 C 8.127806 4.628534 -12.170619 0 CFG=1
M  V30 2 C 11.592318 7.569611 -6.079571 0
M  V30 3 O 11.375392 10.099173 -4.774621 0
M  V30 4 C 12.216179 9.587996 -3.758049 0
M  V30 5 C 6.867319 2.945494 -13.698255 0
M  V30 6 C 6.684177 1.185364 -15.248442 0
M  V30 7 C 6.378448 1.676012 -13.940694 0
M  V30 8 C 9.348158 3.670236 -12.051706 0
M  V30 9 O 12.575542 6.242712 -2.025067 0
M  V30 10 O 5.690246 4.721478 -12.548243 0
M  V30 11 C 9.179837 6.180272 -10.345677 0 CFG=2
M  V30 12 C 6.235603 -0.289249 -17.111529 0
M  V30 13 C 8.474355 4.870173 -15.383534 0 CFG=1
M  V30 14 C 7.970884 5.338737 -10.805813 0
M  V30 15 C 7.884709 3.391951 -15.627763 0
M  V30 16 O 12.965279 8.390394 -1.354224 0
M  V30 17 N 8.352123 5.680566 -13.187385 0
M  V30 18 C 11.067090 6.005512 -4.397565 0
M  V30 19 C 7.553684 3.485770 -14.749127 0
M  V30 20 C 12.298475 8.031171 -3.699761 0 CFG=1
M  V30 21 O 9.253085 5.187253 -14.231955 0
M  V30 22 C 6.795469 3.839911 -12.475371 0 CFG=2
M  V30 23 C 9.326169 6.140575 -8.821242 0
M  V30 24 C 7.475137 2.074302 -16.124991 0
M  V30 25 C 10.335583 7.593235 -6.913014 0 CFG=2
M  V30 26 C 10.417544 7.050566 -8.315408 0 CFG=2
M  V30 27 O 8.975414 7.503098 -10.785027 0
M  V30 28 O 4.968645 -0.409742 -15.185059 0
M  V30 29 C 10.190773 8.521870 -8.095186 0
M  V30 30 C 12.180403 7.580840 -2.196051 0
M  V30 31 N 6.243942 -0.085777 -15.669279 0
M  V30 32 N 11.329702 7.407990 -4.646791 0
M  V30 33 H 12.175408 6.722549 -6.438586 0
M  V30 34 H 12.175399 8.460253 -6.305579 0
M  V30 35 H 10.848877 9.366884 -5.071850 0
M  V30 36 H 11.811211 9.993816 -2.831361 0
M  V30 37 H 13.221084 9.990213 -3.873693 0
M  V30 38 H 5.814288 1.111769 -13.212399 0
M  V30 39 H 9.375210 3.181187 -11.080175 0
M  V30 40 H 9.357304 2.879125 -12.795750 0
M  V30 41 H 10.293117 4.198687 -12.157687 0
M  V30 42 H 12.121350 5.878921 -1.279637 0
M  V30 43 H 5.735354 5.310414 -11.809756 0
M  V30 44 H 10.114849 5.844218 -10.784158 0
M  V30 45 H 7.250382 -0.386894 -17.497267 0
M  V30 46 H 5.706675 -1.210405 -17.360114 0
M  V30 47 H 5.732076 0.531435 -17.624195 0
M  V30 48 H 7.774002 5.656559 -15.659883 0
M  V30 49 H 7.078669 5.966018 -10.785230 0
M  V30 50 H 7.775735 4.566898 -10.059699 0
M  V30 51 H 13.783968 8.579566 -1.784588 0
M  V30 52 H 8.848749 6.449670 -12.750382 0
M  V30 53 H 10.568766 5.871326 -3.439490 0
M  V30 54 H 10.407148 5.590372 -5.155018 0
M  V30 55 H 12.001577 5.447970 -4.410721 0
M  V30 56 H 13.308853 7.750123 -3.985023 0
M  V30 57 H 6.575347 3.190220 -11.630487 0
M  V30 58 H 8.383418 6.390267 -8.335166 0
M  V30 59 H 9.562719 5.123905 -8.506114 0
M  V30 60 H 7.746771 1.766143 -17.122540 0
M  V30 61 H 9.416325 7.385029 -6.365754 0
M  V30 62 H 11.406525 6.790400 -8.685815 0
M  V30 63 H 8.219090 7.826397 -10.282706 0
M  V30 64 H 5.084979 -1.120834 -14.556686 0
M  V30 65 H 11.017526 9.190075 -8.326933 0
M  V30 66 H 9.196757 8.916137 -8.301077 0
M  V30 67 H 11.150870 7.669882 -1.852177 0
M  V30 END ATOM
M  V30 BEGIN BOND
M  V30 1 1 4 3
M  V30 2 2 7 5
M  V30 3 1 7 6
M  V30 4 1 1 8 CFG=1
M  V30 5 1 14 1
M  V30 6 1 14 11
M  V30 7 1 15 13
M  V30 8 1 17 1
M  V30 9 1 19 5
M  V30 10 1 19 13
M  V30 11 2 19 15
M  V30 12 1 20 4
M  V30 13 1 21 13
M  V30 14 1 21 17
M  V30 15 1 22 1
M  V30 16 1 22 5
M  V30 17 1 22 10
M  V30 18 1 23 11
M  V30 19 2 24 6
M  V30 20 1 24 15
M  V30 21 1 25 2
M  V30 22 1 26 23
M  V30 23 1 26 25
M  V30 24 1 27 11
M  V30 25 1 29 25
M  V30 26 1 29 26
M  V30 27 1 30 9
M  V30 28 1 30 16
M  V30 29 1 30 20
M  V30 30 1 31 6
M  V30 31 1 31 12
M  V30 32 1 31 28
M  V30 33 1 32 2
M  V30 34 1 32 18
M  V30 35 1 32 20
M  V30 36 1 33 2
M  V30 37 1 34 2
M  V30 38 1 35 3
M  V30 39 1 36 4
M  V30 40 1 37 4
M  V30 41 1 38 7
M  V30 42 1 39 8
M  V30 43 1 40 8
M  V30 44 1 41 8
M  V30 45 1 42 9
M  V30 46 1 43 10
M  V30 47 1 11 44 CFG=3
M  V30 48 1 45 12
M  V30 49 1 46 12
M  V30 50 1 47 12
M  V30 51 1 13 48 CFG=3
M  V30 52 1 49 14
M  V30 53 1 50 14
M  V30 54 1 51 16
M  V30 55 1 52 17
M  V30 56 1 53 18
M  V30 57 1 54 18
M  V30 58 1 55 18
M  V30 59 1 20 56 CFG=3
M  V30 60 1 22 57 CFG=1
M  V30 61 1 58 23
M  V30 62 1 59 23
M  V30 63 1 60 24
M  V30 64 1 25 61 CFG=1
M  V30 65 1 26 62 CFG=3
M  V30 66 1 63 27
M  V30 67 1 64 28
M  V30 68 1 65 29
M  V30 69 1 66 29
M  V30 70 1 67 30
M  V30 END BOND
M  V30 END CTAB
M  END
>  <i_epik_Tot_Q>  (1) 
0

>  <i_epik_Tot_abs_Q>  (1) 
0

>  <i_i_glide_confnum>  (1) 
1596

>  <i_i_glide_lignum>  (1) 
145

>  <i_i_glide_posenum>  (1) 
154

>  <i_i_glide_rotatable_bonds>  (1) 
16

>  <i_lp_mmshare_version>  (1) 
72125

>  <i_m_source_file_index>  (1) 
82

>  <i_f3d_flags>  (1) 
0

>  <num_sample>  (1) 
100

>  <b_lp_Chiralities_Consistent>  (1) 
1

>  <r_epik_Charging_Adjusted_Penalty>  (1) 
0.53465553772288132

>  <r_epik_Ionization_Penalty>  (1) 
0.53502174055569018

>  <r_epik_Ionization_Penalty_Charging>  (1) 
0

>  <r_epik_Ionization_Penalty_Neutral>  (1) 
0.53502174055569018

>  <r_epik_State_Penalty>  (1) 
0.53465553772288132

>  <r_glide_ring_energy>  (1) 
0

>  <r_i_docking_score>  (1) 
-5.7184930456802885

>  <r_i_glide_ecoul>  (1) 
-9.5884674549818989

>  <r_i_glide_eff_state_penalty>  (1) 
0.53465553772288132

>  <r_i_glide_einternal>  (1) 
16.871623900005368

>  <r_i_glide_emodel>  (1) 
-46.314347374393535

>  <r_i_glide_emodel_strain>  (1) 
4.5387754343412325

>  <r_i_glide_energy>  (1) 
-45.166884979430478

>  <r_i_glide_erotb>  (1) 
0.97589078675502272

>  <r_i_glide_esite>  (1) 
-0.0012181094157797062

>  <r_i_glide_evdw>  (1) 
-35.578417524448582

>  <r_i_glide_gscore>  (1) 
-6.2531485834031697

>  <r_i_glide_gscore_strain>  (1) 
0.13469385858530813

>  <r_i_glide_hbond>  (1) 
-0.30399999999999999

>  <r_i_glide_ligand_efficiency>  (1) 
-0.17870290767750902

>  <r_i_glide_ligand_efficiency_ln>  (1) 
-1.2805264731609327

>  <r_i_glide_ligand_efficiency_sa>  (1) 
-0.56734636727410781

>  <r_i_glide_lipo>  (1) 
-2.3873611241576911

>  <r_i_glide_metal>  (1) 
-0

>  <r_i_glide_rewards>  (1) 
-1.4539630007003155

>  <r_lp_Energy>  (1) 
74.761414000000002

>  <s_epik_Chemistry_Notes>  (1) 
This compound contains an acetal/aminal-like group ( X-CH(R)-Y where X, Y are N, S, or O) that may be acid/base labile, releasing an aldehyde. This compound has a N-S or N-O group and may undergo hydrolysis at high or low pH.

>  <s_epik_cmdline>  (1) 
J2VwaWtfcHl0aG9uJywgJy1waHQnLCAnMS4wJywgJy1waCcsICc3LjQnLCAnLXRuJywgJzgnLCAnLW1hJywgJzUwMCcsICctaW1hZScsICc8aW5maWxlLm1hZT4nLCAnLW9tYWUnLCAnPG91dGZpbGUubWFlPic=

>  <s_epik_input>  (1) 
W0NIM11OKFtPSF0pYyhbY0hdMSlbY0hdYyhjMmMxMylbQ0BASF0yT1tOSF1bQ0BdKFtDSDNdKShbQ0BIXTNbT0hdKVtDSDJdW0NAQEhdKFtPSF0pW0NIMl1bQ0BASF0oW0NIMl00KVtDQEhdNFtDSDJdTihbQ0gzXSlbQ0BASF0oW0NIMl1bT0hdKVtDSF0oW09IXSlbT0hd

>  <s_glide_docking_method>  (1) 
confgen

>  <s_i_glide_gridfile>  (1) 
gpcr_drd2_6luq_protein_autoprepared_prepared

>  <s_lp_Force_Field>  (1) 
S-OPLS

>  <s_lp_Variant>  (1) 
DiffSBDD_81-3

>  <s_m_source_file>  (1) 
generated_generic_title2_ligand_DiffSBDD_2026-06-23_prepared.sdf

>  <GenAI_Model>  (1) 
DiffSBDD

>  <Protein>  (1) 
generic_title2

$$$$
DiffSBDD_80
     RDKit          3D

  0  0  0  0  0  0  0  0  0  0999 V3000
M  V30 BEGIN CTAB
M  V30 COUNTS 80 86 0 0 1
M  V30 BEGIN ATOM
M  V30 1 C 8.450666 5.199185 -14.146502 0
M  V30 2 C 8.887918 1.888286 -22.046089 0
M  V30 3 C 6.428247 5.269993 -17.948347 0
M  V30 4 O 7.812042 0.261668 -20.630251 0
M  V30 5 N 9.660615 7.366305 -9.233819 0 CHG=1
M  V30 6 C 4.647040 7.180334 -18.892254 0
M  V30 7 C 5.960659 6.268573 -17.070919 0
M  V30 8 C 7.707578 1.309009 -21.265366 0
M  V30 9 C 6.485253 7.495706 -14.938745 0
M  V30 10 C 10.086581 6.215139 -11.796219 0 CFG=2
M  V30 11 C 11.035453 7.513326 -9.717786 0 CFG=2
M  V30 12 C 6.548275 3.619946 -21.195442 0 CFG=1
M  V30 13 C 7.988416 4.679864 -11.557975 0 CFG=2
M  V30 14 O 7.395389 3.203840 -13.334447 0
M  V30 15 C 7.690105 4.142809 -22.095596 0
M  V30 16 C 6.386515 2.082900 -21.319381 0
M  V30 17 N 7.283542 4.266454 -17.748419 0
M  V30 18 O 5.775526 3.590283 -11.164998 0
M  V30 19 C 8.990427 6.089523 -9.594723 0
M  V30 20 C 5.056456 7.230028 -17.548658 0
M  V30 21 O 7.868771 7.027768 -11.585025 0
M  V30 22 C 7.868546 5.355671 -15.573735 0 CFG=2
M  V30 23 C 7.451997 2.778309 -15.755038 0
M  V30 24 C 6.513797 6.129808 -15.660834 0 CFG=2
M  V30 25 C 5.138338 6.158061 -19.744164 0
M  V30 26 O 11.276071 8.786290 -9.584993 0 CHG=-1
M  V30 27 C 6.669713 4.116514 -19.758029 0
M  V30 28 C 8.732382 5.992512 -11.128385 0 CFG=1
M  V30 29 C 6.037826 5.216137 -19.178274 0
M  V30 30 N 7.497700 3.431167 -18.916016 0
M  V30 31 C 9.463824 3.870266 -16.825125 0
M  V30 32 C 9.020175 3.408014 -21.850806 0
M  V30 33 C 11.165723 7.099301 -11.177597 0 CFG=2
M  V30 34 C 7.537654 4.593689 -13.063235 0 CFG=2
M  V30 35 C 7.963355 4.078221 -16.454687 0 CFG=1
M  V30 36 C 4.704028 6.109553 -21.196411 0
M  V30 37 O 10.270244 7.590213 -12.153734 0
M  V30 38 C 6.737438 4.475438 -10.640333 0
M  V30 39 C 6.608959 2.896378 -14.470382 0
M  V30 40 H 8.711588 6.207290 -13.856470 0
M  V30 41 H 9.382647 4.641422 -14.160135 0
M  V30 42 H 9.804910 1.387667 -21.739073 0
M  V30 43 H 5.694493 1.704451 -20.568193 0
M  V30 44 H 8.742084 1.661311 -23.101696 0
M  V30 45 H 9.121513 8.118563 -9.639150 0
M  V30 46 H 3.957184 7.920735 -19.271819 0
M  V30 47 H 5.459008 7.830881 -14.785442 0
M  V30 48 H 6.931417 7.463138 -13.949766 0
M  V30 49 H 6.975410 8.276401 -15.513794 0
M  V30 50 H 10.467620 5.462278 -12.476501 0
M  V30 51 H 11.619531 6.790214 -9.154105 0
M  V30 52 H 5.619832 3.937900 -21.637808 0
M  V30 53 H 8.675580 3.849332 -11.377082 0
M  V30 54 H 7.410266 4.005106 -23.140839 0
M  V30 55 H 7.822149 5.215925 -21.959576 0
M  V30 56 H 5.943189 1.852584 -22.289316 0
M  V30 57 H 6.187688 3.093667 -11.861348 0
M  V30 58 H 8.079083 5.990132 -9.009447 0
M  V30 59 H 9.621300 5.262118 -9.267683 0
M  V30 60 H 4.679481 8.001524 -16.895139 0
M  V30 61 H 7.376040 7.375243 -10.835365 0
M  V30 62 H 8.585466 6.000670 -16.065886 0
M  V30 63 H 8.295033 2.135118 -15.499697 0
M  V30 64 H 6.881955 2.190574 -16.474552 0
M  V30 65 H 5.745839 5.551383 -15.159338 0
M  V30 66 H 10.146808 3.989561 -15.988351 0
M  V30 67 H 9.647804 2.884602 -17.255406 0
M  V30 68 H 9.791243 4.599099 -17.567294 0
M  V30 69 H 9.389420 3.617634 -20.846290 0
M  V30 70 H 9.780180 3.794962 -22.530378 0
M  V30 71 H 12.175688 7.021994 -11.558419 0
M  V30 72 H 6.573059 5.097467 -13.124913 0
M  V30 73 H 4.164068 7.020606 -21.452413 0
M  V30 74 H 5.552289 6.076397 -21.876861 0
M  V30 75 H 4.015515 5.284202 -21.372357 0
M  V30 76 H 6.214220 5.416506 -10.465235 0
M  V30 77 H 7.025728 4.093275 -9.661820 0
M  V30 78 H 6.175400 1.914336 -14.279178 0
M  V30 79 H 5.775670 3.588978 -14.546358 0
M  V30 80 H 9.661444 7.496925 -8.235704 0
M  V30 END ATOM
M  V30 BEGIN BOND
M  V30 1 2 7 3
M  V30 2 1 8 2
M  V30 3 2 8 4
M  V30 4 1 11 5
M  V30 5 1 15 12
M  V30 6 1 16 8
M  V30 7 1 16 12
M  V30 8 1 17 3
M  V30 9 1 19 5
M  V30 10 2 20 6
M  V30 11 1 20 7
M  V30 12 1 22 1
M  V30 13 1 24 7
M  V30 14 1 24 9
M  V30 15 1 24 22
M  V30 16 1 25 6
M  V30 17 1 26 11
M  V30 18 1 27 12
M  V30 19 1 28 10
M  V30 20 1 28 13
M  V30 21 1 28 19
M  V30 22 1 28 21 CFG=3
M  V30 23 1 29 3
M  V30 24 2 29 25
M  V30 25 1 29 27
M  V30 26 1 30 17
M  V30 27 2 30 27
M  V30 28 1 32 2
M  V30 29 1 32 15
M  V30 30 1 33 10
M  V30 31 1 33 11
M  V30 32 1 34 1
M  V30 33 1 34 13
M  V30 34 1 34 14
M  V30 35 1 35 17
M  V30 36 1 35 22
M  V30 37 1 35 23
M  V30 38 1 35 31 CFG=3
M  V30 39 1 36 25
M  V30 40 1 37 10
M  V30 41 1 37 33
M  V30 42 1 38 13
M  V30 43 1 38 18
M  V30 44 1 39 14
M  V30 45 1 39 23
M  V30 46 1 40 1
M  V30 47 1 41 1
M  V30 48 1 42 2
M  V30 49 1 43 16
M  V30 50 1 44 2
M  V30 51 1 45 5
M  V30 52 1 46 6
M  V30 53 1 47 9
M  V30 54 1 48 9
M  V30 55 1 49 9
M  V30 56 1 10 50 CFG=3
M  V30 57 1 11 51 CFG=1
M  V30 58 1 12 52 CFG=3
M  V30 59 1 13 53 CFG=1
M  V30 60 1 54 15
M  V30 61 1 55 15
M  V30 62 1 56 16
M  V30 63 1 57 18
M  V30 64 1 58 19
M  V30 65 1 59 19
M  V30 66 1 60 20
M  V30 67 1 61 21
M  V30 68 1 22 62 CFG=3
M  V30 69 1 63 23
M  V30 70 1 64 23
M  V30 71 1 24 65 CFG=1
M  V30 72 1 66 31
M  V30 73 1 67 31
M  V30 74 1 68 31
M  V30 75 1 69 32
M  V30 76 1 70 32
M  V30 77 1 33 71 CFG=3
M  V30 78 1 34 72 CFG=1
M  V30 79 1 73 36
M  V30 80 1 74 36
M  V30 81 1 75 36
M  V30 82 1 76 38
M  V30 83 1 77 38
M  V30 84 1 78 39
M  V30 85 1 79 39
M  V30 86 1 80 5
M  V30 END BOND
M  V30 END CTAB
M  END
>  <i_epik_Tot_Q>  (1) 
0

>  <i_epik_Tot_abs_Q>  (1) 
2

>  <i_i_glide_confnum>  (1) 
72

>  <i_i_glide_lignum>  (1) 
140

>  <i_i_glide_posenum>  (1) 
315

>  <i_i_glide_rotatable_bonds>  (1) 
6

>  <i_lp_mmshare_version>  (1) 
72125

>  <i_m_source_file_index>  (1) 
81

>  <i_f3d_flags>  (1) 
0

>  <num_sample>  (1) 
100

>  <b_lp_Chiralities_Consistent>  (1) 
1

>  <r_epik_Charging_Adjusted_Penalty>  (1) 
0.19389291401224384

>  <r_epik_Ionization_Penalty>  (1) 
0.092004943806736766

>  <r_epik_Ionization_Penalty_Charging>  (1) 
0.091964506543683239

>  <r_epik_Ionization_Penalty_Neutral>  (1) 
4.0437263053531681e-05

>  <r_epik_State_Penalty>  (1) 
0.10192840746856062

>  <r_glide_ring_energy>  (1) 
1.9914992284172306

>  <r_i_docking_score>  (1) 
-5.7138499600663222

>  <r_i_glide_ecoul>  (1) 
-8.7907644348560385

>  <r_i_glide_eff_state_penalty>  (1) 
0.10192840746856062

>  <r_i_glide_einternal>  (1) 
8.131841319628867

>  <r_i_glide_emodel>  (1) 
-32.060144886356433

>  <r_i_glide_emodel_strain>  (1) 
4.3007032417184803

>  <r_i_glide_energy>  (1) 
-35.065967845459603

>  <r_i_glide_erotb>  (1) 
0.28387705293314092

>  <r_i_glide_esite>  (1) 
-0.10000000000000001

>  <r_i_glide_evdw>  (1) 
-26.275203410603563

>  <r_i_glide_gscore>  (1) 
-5.8157783675348824

>  <r_i_glide_gscore_strain>  (1) 
0.075175810429620071

>  <r_i_glide_hbond>  (1) 
-0.19237936647411955

>  <r_i_glide_ligand_efficiency>  (1) 
-0.1465089733350339

>  <r_i_glide_ligand_efficiency_ln>  (1) 
-1.2252116287147881

>  <r_i_glide_ligand_efficiency_sa>  (1) 
-0.49684290687802446

>  <r_i_glide_lipo>  (1) 
-2.3013798315870861

>  <r_i_glide_metal>  (1) 
-0

>  <r_i_glide_rewards>  (1) 
-0.94869719707785349

>  <r_lp_Energy>  (1) 
35.890972999999995

>  <r_lp_tautomer_probability>  (1) 
0.99999997999999979

>  <s_epik_Chemistry_Notes>  (1) 
This compound contains an acetal/aminal-like group ( X-CH(R)-Y where X, Y are N, S, or O) that may be acid/base labile, releasing an aldehyde.

>  <s_epik_cmdline>  (1) 
J2VwaWtfcHl0aG9uJywgJy1waHQnLCAnMS4wJywgJy1waCcsICc3LjQnLCAnLXRuJywgJzgnLCAnLW1hJywgJzUwMCcsICctaW1hZScsICc8aW5maWxlLm1hZT4nLCAnLW9tYWUnLCAnPG91dGZpbGUubWFlPic=

>  <s_epik_input>  (1) 
W0NASF0xMltDQEBIXShPMilbQ0BASF0oW09IXSlbTkhdW0NIMl1bQ0BdMShbT0hdKVtDQEBIXShbQ0gyXVtPSF0pW0NASF0oT1tDSDJdW0NIMl0zKVtDSDJdW0NAQEhdNFtDQEBIXShbQ0gzXSljKGM1bjZbQ0BdMzRbQ0gzXSlbY0hdW2NIXWMoW0NIM10pYzVjKG42KVtDQEhdKFtDSDJdW0NIMl1bQ0gyXTcpW0NIXT1DN1tPSF0=

>  <s_glide_docking_method>  (1) 
confgen

>  <s_i_glide_gridfile>  (1) 
gpcr_drd2_6luq_protein_autoprepared_prepared

>  <s_lp_Force_Field>  (1) 
S-OPLS

>  <s_lp_Variant>  (1) 
DiffSBDD_80-2

>  <s_m_source_file>  (1) 
generated_generic_title2_ligand_DiffSBDD_2026-06-23_prepared.sdf

>  <GenAI_Model>  (1) 
DiffSBDD

>  <Protein>  (1) 
generic_title2

$$$$
DiffSBDD_10
     RDKit          3D

  0  0  0  0  0  0  0  0  0  0999 V3000
M  V30 BEGIN CTAB
M  V30 COUNTS 56 60 0 0 1
M  V30 BEGIN ATOM
M  V30 1 S 9.579052 6.568528 -11.513402 0
M  V30 2 C 11.727115 7.990228 -10.385024 0
M  V30 3 C 8.477746 4.916461 -13.422504 0 CFG=1
M  V30 4 C 10.305341 7.783557 -6.763761 0
M  V30 5 C 5.851594 4.841882 -12.969005 0
M  V30 6 C 10.999119 7.820653 -5.433712 0
M  V30 7 O 9.344055 5.744142 -10.319043 0
M  V30 8 C 5.732855 5.655601 -14.278307 0
M  V30 9 C 11.775411 6.680673 -3.412491 0
M  V30 10 C 6.830983 5.706063 -16.673509 0
M  V30 11 C 8.253795 5.282275 -17.073842 0
M  V30 12 N 9.708144 5.504251 -12.862365 0
M  V30 13 C 8.144589 3.493159 -13.054575 0
M  V30 14 C 6.776453 5.145177 -15.272079 0 CFG=1
M  V30 15 O 8.689358 7.675708 -11.894380 0
M  V30 16 C 11.134531 6.644421 -4.665561 0
M  V30 17 N 11.187843 7.190227 -11.412721 0
M  V30 18 C 7.292157 4.617469 -12.493859 0 CFG=1
M  V30 19 C 11.525803 9.034546 -4.932267 0
M  V30 20 C 9.057548 6.935321 -6.936160 0
M  V30 21 C 12.297387 7.889322 -2.921710 0
M  V30 22 O 12.889709 8.390228 -10.409711 0
M  V30 23 O 8.996107 5.147226 -15.855750 0
M  V30 24 C 11.321472 7.803843 -7.898147 0
M  V30 25 C 12.175411 9.064873 -3.680839 0
M  V30 26 C 10.788089 8.349294 -9.235158 0
M  V30 27 C 8.941701 8.432576 -6.871865 0
M  V30 28 C 8.158253 5.532707 -14.774829 0 CFG=2
M  V30 29 H 5.375614 3.868128 -13.089820 0
M  V30 30 H 5.304823 5.353221 -12.176988 0
M  V30 31 H 4.727603 5.590225 -14.688081 0
M  V30 32 H 5.899690 6.713604 -14.069879 0
M  V30 33 H 11.869254 5.776136 -2.829371 0
M  V30 34 H 6.065008 5.300677 -17.334375 0
M  V30 35 H 6.735411 6.792313 -16.661736 0
M  V30 36 H 8.237918 4.313082 -17.574304 0
M  V30 37 H 8.724641 5.991987 -17.752551 0
M  V30 38 H 10.466421 4.823792 -12.777458 0
M  V30 39 H 7.709713 2.848460 -13.813946 0
M  V30 40 H 8.814453 2.986843 -12.361847 0
M  V30 41 H 6.683580 4.061962 -15.363509 0
M  V30 42 H 10.739442 5.711730 -5.036861 0
M  V30 43 H 11.748652 6.951238 -12.227772 0
M  V30 44 H 7.398085 4.739109 -11.419796 0
M  V30 45 H 11.430659 9.941700 -5.510687 0
M  V30 46 H 8.846869 6.484886 -7.902247 0
M  V30 47 H 8.685094 6.374242 -6.082496 0
M  V30 48 H 12.792130 7.914941 -1.962249 0
M  V30 49 H 12.174926 8.417499 -7.604509 0
M  V30 50 H 11.704717 6.790222 -8.015162 0
M  V30 51 H 12.577687 9.990225 -3.302945 0
M  V30 52 H 9.767943 8.033522 -9.416545 0
M  V30 53 H 10.742019 9.436106 -9.185040 0
M  V30 54 H 8.442201 8.790225 -5.985025 0
M  V30 55 H 8.644340 8.945123 -7.782776 0
M  V30 56 H 8.175411 6.619535 -14.670363 0
M  V30 END ATOM
M  V30 BEGIN BOND
M  V30 1 1 6 4
M  V30 2 2 7 1
M  V30 3 1 8 5
M  V30 4 1 11 10
M  V30 5 1 12 1
M  V30 6 1 3 12 CFG=1
M  V30 7 1 13 3
M  V30 8 1 14 8
M  V30 9 1 14 10
M  V30 10 2 15 1
M  V30 11 2 16 6
M  V30 12 1 16 9
M  V30 13 1 17 1
M  V30 14 1 17 2
M  V30 15 1 18 3
M  V30 16 1 18 5
M  V30 17 1 18 13
M  V30 18 1 19 6
M  V30 19 1 20 4
M  V30 20 2 21 9
M  V30 21 2 22 2
M  V30 22 1 23 11
M  V30 23 1 24 4
M  V30 24 2 25 19
M  V30 25 1 25 21
M  V30 26 1 26 2
M  V30 27 1 26 24
M  V30 28 1 27 4
M  V30 29 1 27 20
M  V30 30 1 28 3
M  V30 31 1 28 14
M  V30 32 1 28 23
M  V30 33 1 29 5
M  V30 34 1 30 5
M  V30 35 1 31 8
M  V30 36 1 32 8
M  V30 37 1 33 9
M  V30 38 1 34 10
M  V30 39 1 35 10
M  V30 40 1 36 11
M  V30 41 1 37 11
M  V30 42 1 38 12
M  V30 43 1 39 13
M  V30 44 1 40 13
M  V30 45 1 14 41 CFG=3
M  V30 46 1 42 16
M  V30 47 1 43 17
M  V30 48 1 18 44 CFG=1
M  V30 49 1 45 19
M  V30 50 1 46 20
M  V30 51 1 47 20
M  V30 52 1 48 21
M  V30 53 1 49 24
M  V30 54 1 50 24
M  V30 55 1 51 25
M  V30 56 1 52 26
M  V30 57 1 53 26
M  V30 58 1 54 27
M  V30 59 1 55 27
M  V30 60 1 28 56 CFG=1
M  V30 END BOND
M  V30 END CTAB
M  END
>  <i_epik_Tot_Q>  (1) 
0

>  <i_epik_Tot_abs_Q>  (1) 
0

>  <i_i_glide_confnum>  (1) 
526

>  <i_i_glide_lignum>  (1) 
20

>  <i_i_glide_posenum>  (1) 
72

>  <i_i_glide_rotatable_bonds>  (1) 
8

>  <i_lp_mmshare_version>  (1) 
72125

>  <i_m_source_file_index>  (1) 
11

>  <i_f3d_flags>  (1) 
0

>  <num_sample>  (1) 
100

>  <b_lp_Chiralities_Consistent>  (1) 
1

>  <r_epik_Charging_Adjusted_Penalty>  (1) 
1.0976853204972508

>  <r_epik_Ionization_Penalty>  (1) 
2.0664492353545092

>  <r_epik_Ionization_Penalty_Charging>  (1) 
0

>  <r_epik_Ionization_Penalty_Neutral>  (1) 
2.0664492353545092

>  <r_epik_State_Penalty>  (1) 
1.0976853204972508

>  <r_glide_ring_energy>  (1) 
0

>  <r_i_docking_score>  (1) 
-5.7116142597947679

>  <r_i_glide_ecoul>  (1) 
-1.5498902649391542

>  <r_i_glide_eff_state_penalty>  (1) 
1.0976853204972508

>  <r_i_glide_einternal>  (1) 
7.7097908606898624

>  <r_i_glide_emodel>  (1) 
-54.815704220782401

>  <r_i_glide_emodel_strain>  (1) 
0.57751151606298379

>  <r_i_glide_energy>  (1) 
-41.460878687529579

>  <r_i_glide_erotb>  (1) 
0.84027593632591602

>  <r_i_glide_esite>  (1) 
-0.17790220537098272

>  <r_i_glide_evdw>  (1) 
-39.910988422590428

>  <r_i_glide_gscore>  (1) 
-6.8092995802920182

>  <r_i_glide_gscore_strain>  (1) 
0

>  <r_i_glide_hbond>  (1) 
-0.27507809874531775

>  <r_i_glide_ligand_efficiency>  (1) 
-0.20398622356409885

>  <r_i_glide_ligand_efficiency_ln>  (1) 
-1.3184082714423324

>  <r_i_glide_ligand_efficiency_sa>  (1) 
-0.61942231688930605

>  <r_i_glide_lipo>  (1) 
-3.3039798175770576

>  <r_i_glide_metal>  (1) 
-0

>  <r_i_glide_rewards>  (1) 
-1.6645824340541817

>  <r_lp_Energy>  (1) 
1.11948

>  <s_epik_cmdline>  (1) 
J2VwaWtfcHl0aG9uJywgJy1waHQnLCAnMS4wJywgJy1waCcsICc3LjQnLCAnLXRuJywgJzgnLCAnLW1hJywgJzUwMCcsICctaW1hZScsICc8aW5maWxlLm1hZT4nLCAnLW9tYWUnLCAnPG91dGZpbGUubWFlPic=

>  <s_epik_input>  (1) 
W0NIMl0xW0NIMl1PW0NASF0yW0NASF0xW0NIMl1bQ0gyXVtDQEBIXShbQ0gyXTMpW0NAXTIzW05IXVMoPU8pKD1PKVtOSF1DKD1PKVtDSDJdW0NIMl1DNChbQ0gyXVtDSDJdNCljNVtjSF1bY0hdW2NIXVtjSF1bY0hdNQ==

>  <s_glide_docking_method>  (1) 
confgen

>  <s_i_glide_gridfile>  (1) 
gpcr_drd2_6luq_protein_autoprepared_prepared

>  <s_lp_Force_Field>  (1) 
S-OPLS

>  <s_lp_Variant>  (1) 
DiffSBDD_10-3

>  <s_m_source_file>  (1) 
generated_generic_title2_ligand_DiffSBDD_2026-06-23_prepared.sdf

>  <GenAI_Model>  (1) 
DiffSBDD

>  <Protein>  (1) 
generic_title2

$$$$
DiffSBDD_11
     RDKit          3D

  0  0  0  0  0  0  0  0  0  0999 V3000
M  V30 BEGIN CTAB
M  V30 COUNTS 44 44 0 0 1
M  V30 BEGIN ATOM
M  V30 1 C 8.597530 4.920676 -13.105550 0 CFG=1
M  V30 2 C 10.945303 7.004437 -5.169598 0
M  V30 3 C 9.225537 5.272696 -11.747006 0
M  V30 4 C 9.514069 6.598565 -8.709125 0
M  V30 5 C 12.630705 8.101161 -3.036575 0
M  V30 6 C 10.506379 6.992394 -7.600689 0 CFG=1
M  V30 7 C 11.335687 9.112925 -6.352910 0
M  V30 8 C 9.249839 5.098553 -8.921175 0
M  V30 9 C 10.806816 8.515263 -7.650536 0 CFG=1
M  V30 10 C 7.295782 5.692168 -13.382032 0
M  V30 11 N 9.565446 5.190226 -14.182364 0 CHG=1
M  V30 12 N 11.375381 8.430577 -5.242491 0 CHG=1
M  V30 13 C 11.871351 9.046105 -3.979554 0
M  V30 14 C 11.769046 8.907370 -8.791178 0
M  V30 15 C 9.925485 6.643937 -6.236302 0
M  V30 16 S 8.167265 4.790226 -10.354262 0
M  V30 17 H 8.383223 3.851292 -13.121939 0
M  V30 18 H 11.844641 6.396336 -5.274036 0
M  V30 19 H 10.535680 6.790195 -4.183802 0
M  V30 20 H 10.175441 4.750154 -11.636419 0
M  V30 21 H 9.435520 6.341129 -11.700338 0
M  V30 22 H 8.575411 7.063936 -8.443576 0
M  V30 23 H 9.824547 7.043248 -9.649306 0
M  V30 24 H 13.069528 8.661793 -2.211020 0
M  V30 25 H 13.438071 7.590187 -3.557209 0
M  V30 26 H 11.983399 7.346166 -2.592980 0
M  V30 27 H 11.433438 6.436413 -7.740476 0
M  V30 28 H 11.687360 10.137908 -6.320471 0
M  V30 29 H 10.175383 4.544337 -9.049123 0
M  V30 30 H 8.753453 4.679233 -8.046156 0
M  V30 31 H 6.525457 5.460924 -12.645907 0
M  V30 32 H 6.886461 5.437891 -14.359661 0
M  V30 33 H 7.456244 6.770325 -13.356087 0
M  V30 34 H 9.731587 6.182522 -14.242597 0
M  V30 35 H 9.197468 4.856937 -15.061490 0
M  V30 36 H 12.530047 9.872198 -4.252821 0
M  V30 37 H 11.009922 9.485874 -3.475083 0
M  V30 38 H 11.775419 9.987691 -8.938594 0
M  V30 39 H 11.470162 8.481446 -9.748262 0
M  V30 40 H 12.790978 8.580377 -8.593535 0
M  V30 41 H 8.989174 7.177947 -6.063784 0
M  V30 42 H 9.698816 5.590227 -6.184129 0
M  V30 43 H 10.444873 4.721046 -13.985223 0
M  V30 44 H 9.856981 9.019414 -7.836348 0
M  V30 END ATOM
M  V30 BEGIN BOND
M  V30 1 1 3 1
M  V30 2 1 6 4
M  V30 3 1 8 4
M  V30 4 1 9 6
M  V30 5 1 9 7
M  V30 6 1 10 1
M  V30 7 1 11 1
M  V30 8 1 12 2
M  V30 9 2 12 7
M  V30 10 1 13 5
M  V30 11 1 13 12
M  V30 12 1 14 9
M  V30 13 1 15 2
M  V30 14 1 15 6
M  V30 15 1 16 3
M  V30 16 1 16 8
M  V30 17 1 1 17 CFG=1
M  V30 18 1 18 2
M  V30 19 1 19 2
M  V30 20 1 20 3
M  V30 21 1 21 3
M  V30 22 1 22 4
M  V30 23 1 23 4
M  V30 24 1 24 5
M  V30 25 1 25 5
M  V30 26 1 26 5
M  V30 27 1 6 27 CFG=3
M  V30 28 1 28 7
M  V30 29 1 29 8
M  V30 30 1 30 8
M  V30 31 1 31 10
M  V30 32 1 32 10
M  V30 33 1 33 10
M  V30 34 1 34 11
M  V30 35 1 35 11
M  V30 36 1 36 13
M  V30 37 1 37 13
M  V30 38 1 38 14
M  V30 39 1 39 14
M  V30 40 1 40 14
M  V30 41 1 41 15
M  V30 42 1 42 15
M  V30 43 1 43 11
M  V30 44 1 9 44 CFG=3
M  V30 END BOND
M  V30 END CTAB
M  END
>  <i_epik_Tot_Q>  (1) 
2

>  <i_epik_Tot_abs_Q>  (1) 
2

>  <i_i_glide_confnum>  (1) 
2

>  <i_i_glide_lignum>  (1) 
21

>  <i_i_glide_posenum>  (1) 
157

>  <i_i_glide_rotatable_bonds>  (1) 
6

>  <i_lp_mmshare_version>  (1) 
72125

>  <i_m_source_file_index>  (1) 
12

>  <i_f3d_flags>  (1) 
0

>  <num_sample>  (1) 
100

>  <b_lp_Chiralities_Consistent>  (1) 
1

>  <r_epik_Charging_Adjusted_Penalty>  (1) 
0.13380573077515515

>  <r_epik_Ionization_Penalty>  (1) 
0.13380575400753034

>  <r_epik_Ionization_Penalty_Charging>  (1) 
0.0076430572427279801

>  <r_epik_Ionization_Penalty_Neutral>  (1) 
0.12616269676480235

>  <r_epik_State_Penalty>  (1) 
0.12616267353242716

>  <r_glide_ring_energy>  (1) 
0

>  <r_i_docking_score>  (1) 
-5.7089679448033825

>  <r_i_glide_ecoul>  (1) 
-4.6968246248705601

>  <r_i_glide_eff_state_penalty>  (1) 
0.12616267353242716

>  <r_i_glide_einternal>  (1) 
1.8952774523640055

>  <r_i_glide_emodel>  (1) 
-42.082249645061395

>  <r_i_glide_emodel_strain>  (1) 
0.62695122903206801

>  <r_i_glide_energy>  (1) 
-28.556690127426016

>  <r_i_glide_erotb>  (1) 
1.1639209444696645

>  <r_i_glide_esite>  (1) 
-0.012436135378044326

>  <r_i_glide_evdw>  (1) 
-23.859865502555458

>  <r_i_glide_gscore>  (1) 
-5.8351306183358096

>  <r_i_glide_gscore_strain>  (1) 
0

>  <r_i_glide_hbond>  (1) 
0

>  <r_i_glide_ligand_efficiency>  (1) 
-0.35681049655021141

>  <r_i_glide_ligand_efficiency_ln>  (1) 
-1.5132759929934732

>  <r_i_glide_ligand_efficiency_sa>  (1) 
-0.89910611085410685

>  <r_i_glide_lipo>  (1) 
-1.8747413596118927

>  <r_i_glide_metal>  (1) 
-0

>  <r_i_glide_rewards>  (1) 
-3.2143570989571808

>  <r_lp_Energy>  (1) 
22.734718999999998

>  <s_epik_Chemistry_Notes>  (1) 
This compound has an imine and may undergo hydrolysis.

>  <s_epik_cmdline>  (1) 
J2VwaWtfcHl0aG9uJywgJy1waHQnLCAnMS4wJywgJy1waCcsICc3LjQnLCAnLXRuJywgJzgnLCAnLW1hJywgJzUwMCcsICctaW1hZScsICc8aW5maWxlLm1hZT4nLCAnLW9tYWUnLCAnPG91dGZpbGUubWFlPic=

>  <s_epik_input>  (1) 
W0NIM11bQ0BASF0oW05IMl0pW0NIMl1TW0NIMl1bQ0gyXVtDQEhdMUMoW0NIM10pPVtDSF1OKFtDSDJdW0NIMl0xKVtDSDJdW0NIM10=

>  <s_glide_docking_method>  (1) 
confgen

>  <s_i_glide_gridfile>  (1) 
gpcr_drd2_6luq_protein_autoprepared_prepared

>  <s_lp_Force_Field>  (1) 
S-OPLS

>  <s_lp_Variant>  (1) 
DiffSBDD_11-1

>  <s_m_source_file>  (1) 
generated_generic_title2_ligand_DiffSBDD_2026-06-23_prepared.sdf

>  <GenAI_Model>  (1) 
DiffSBDD

>  <Protein>  (1) 
generic_title2

$$$$
DiffSBDD_40
     RDKit          3D

  0  0  0  0  0  0  0  0  0  0999 V3000
M  V30 BEGIN CTAB
M  V30 COUNTS 89 95 0 0 1
M  V30 BEGIN ATOM
M  V30 1 N 11.950086 7.057386 -20.051957 0
M  V30 2 C 14.442122 6.780252 -19.866936 0
M  V30 3 C 7.739051 3.189085 -13.828163 0
M  V30 4 C 10.818481 7.140359 -9.164700 0
M  V30 5 C 7.822153 3.500929 -15.234905 0
M  V30 6 C 13.027302 6.551379 -19.151946 0 CFG=2
M  V30 7 C 7.840259 1.105962 -15.749083 0
M  V30 8 C 8.832492 5.591568 -10.835075 0 CFG=1
M  V30 9 O 11.717755 3.182165 -18.042112 0
M  V30 10 C 7.651345 4.289044 -12.733771 0 CFG=1
M  V30 11 C 7.876641 4.947443 -15.759903 0 CFG=1
M  V30 12 N 11.489685 0.978207 -17.986369 0
M  V30 13 C 12.775456 5.320638 -18.297443 0 CFG=1
M  V30 14 C 6.851132 6.444571 -13.952968 0
M  V30 15 N 10.369873 6.790239 -5.685226 0 CHG=1
M  V30 16 C 11.074231 2.138206 -18.595612 0
M  V30 17 O 9.775505 5.312366 -13.131704 0
M  V30 18 C 13.928239 7.544849 -21.040755 0
M  V30 19 C 9.774492 6.584351 -11.318066 0
M  V30 20 C 10.226887 5.105735 -17.812991 0
M  V30 21 C 11.947364 8.390373 -22.099210 0
M  V30 22 C 12.591986 7.671852 -21.081606 0
M  V30 23 N 8.904032 4.683128 -12.068515 0
M  V30 24 C 10.156440 7.719833 -10.409838 0
M  V30 25 O 10.248053 2.231483 -19.500344 0
M  V30 26 C 7.718178 1.831864 -13.428328 0
M  V30 27 N 8.975402 6.416292 -7.608258 0
M  V30 28 C 9.375281 4.958032 -9.535254 0
M  V30 29 C 7.868980 2.444175 -16.174704 0
M  V30 30 C 6.554518 5.361390 -12.914834 0 CFG=1
M  V30 31 C 7.769083 0.801051 -14.382778 0
M  V30 32 C 14.750659 8.118517 -22.024627 0
M  V30 33 C 12.861334 6.700807 -17.665525 0
M  V30 34 C 14.146381 8.848311 -23.076434 0
M  V30 35 C 9.349631 7.369054 -6.573539 0
M  V30 36 C 5.203560 4.703858 -13.178573 0
M  V30 37 C 6.770257 5.930725 -15.385045 0
M  V30 38 C 11.487022 4.518376 -18.490897 0 CFG=2
M  V30 39 C 12.733371 8.986994 -23.112371 0
M  V30 40 O 9.133862 5.590126 -15.636776 0
M  V30 41 C 10.232557 6.390210 -12.494063 0
M  V30 42 C 10.260988 5.008799 -16.277655 0
M  V30 43 C 10.016045 5.965110 -8.523761 0 CFG=1
M  V30 44 H 11.144700 7.506995 -19.641555 0
M  V30 45 H 15.117090 7.369567 -19.246108 0
M  V30 46 H 14.899781 5.836271 -20.163577 0
M  V30 47 H 11.797151 6.790255 -9.476675 0
M  V30 48 H 11.063730 7.937273 -8.467347 0
M  V30 49 H 7.877584 0.308260 -16.476488 0
M  V30 50 H 7.875215 6.068298 -10.657143 0
M  V30 51 H 7.213918 3.718667 -11.913593 0
M  V30 52 H 7.710574 4.848766 -16.831396 0
M  V30 53 H 12.171502 1.043225 -17.244943 0
M  V30 54 H 11.088889 0.104919 -18.293152 0
M  V30 55 H 13.649632 4.687935 -18.152143 0
M  V30 56 H 7.816477 6.910053 -13.764074 0
M  V30 57 H 6.119541 7.246130 -13.838375 0
M  V30 58 H 10.560405 7.427930 -4.927429 0
M  V30 59 H 10.013949 5.920057 -5.311266 0
M  V30 60 H 9.366516 4.559508 -18.196353 0
M  V30 61 H 10.071853 6.139219 -18.120191 0
M  V30 62 H 10.871970 8.484804 -22.110680 0
M  V30 63 H 10.847072 8.389912 -10.912671 0
M  V30 64 H 9.263933 8.290278 -10.152166 0
M  V30 65 H 7.658740 1.581776 -12.385247 0
M  V30 66 H 8.189760 6.799423 -8.137536 0
M  V30 67 H 10.124549 4.216664 -9.800069 0
M  V30 68 H 8.579844 4.390252 -9.054279 0
M  V30 69 H 7.931872 2.666120 -17.230434 0
M  V30 70 H 6.404521 5.899703 -11.983774 0
M  V30 71 H 7.750107 -0.230914 -14.062628 0
M  V30 72 H 15.824087 8.010268 -21.976122 0
M  V30 73 H 11.957864 7.189325 -17.313006 0
M  V30 74 H 13.751727 6.919899 -17.080113 0
M  V30 75 H 14.756258 9.300695 -23.844780 0
M  V30 76 H 9.676827 8.321765 -6.986284 0
M  V30 77 H 8.461441 7.596479 -5.989361 0
M  V30 78 H 5.248456 3.900282 -13.909937 0
M  V30 79 H 4.756328 4.312326 -12.265604 0
M  V30 80 H 4.572539 5.470294 -13.597585 0
M  V30 81 H 6.862352 6.797695 -16.039632 0
M  V30 82 H 5.792743 5.509924 -15.616913 0
M  V30 83 H 11.310137 4.489668 -19.567196 0
M  V30 84 H 12.261314 9.545736 -23.907450 0
M  V30 85 H 10.947425 6.980042 -13.047712 0
M  V30 86 H 11.139366 5.520595 -15.886626 0
M  V30 87 H 10.372723 3.975938 -15.984971 0
M  V30 88 H 10.713605 5.391645 -7.913540 0
M  V30 89 H 11.215198 6.609696 -6.205365 0
M  V30 END ATOM
M  V30 BEGIN BOND
M  V30 1 1 5 3
M  V30 2 1 6 1 CFG=3
M  V30 3 1 6 2
M  V30 4 1 10 3
M  V30 5 1 11 5
M  V30 6 1 13 6
M  V30 7 1 16 9
M  V30 8 1 16 12
M  V30 9 1 18 2
M  V30 10 1 19 8
M  V30 11 1 22 1
M  V30 12 1 22 18
M  V30 13 2 22 21
M  V30 14 1 23 8
M  V30 15 1 23 10
M  V30 16 1 23 17
M  V30 17 1 24 4
M  V30 18 1 24 19
M  V30 19 2 25 16
M  V30 20 2 26 3
M  V30 21 1 28 8
M  V30 22 2 29 5
M  V30 23 1 29 7
M  V30 24 1 30 10
M  V30 25 1 30 14
M  V30 26 2 31 7
M  V30 27 1 31 26
M  V30 28 2 32 18
M  V30 29 1 33 6
M  V30 30 1 33 13
M  V30 31 1 34 32
M  V30 32 1 35 15
M  V30 33 1 35 27
M  V30 34 1 36 30
M  V30 35 1 37 11
M  V30 36 1 37 14
M  V30 37 1 38 9
M  V30 38 1 38 13
M  V30 39 1 38 20
M  V30 40 1 39 21
M  V30 41 2 39 34
M  V30 42 1 40 11
M  V30 43 1 41 17
M  V30 44 2 41 19
M  V30 45 1 42 20
M  V30 46 1 42 40
M  V30 47 1 43 4
M  V30 48 1 43 27
M  V30 49 1 43 28
M  V30 50 1 44 1
M  V30 51 1 45 2
M  V30 52 1 46 2
M  V30 53 1 47 4
M  V30 54 1 48 4
M  V30 55 1 49 7
M  V30 56 1 8 50 CFG=1
M  V30 57 1 10 51 CFG=1
M  V30 58 1 11 52 CFG=3
M  V30 59 1 53 12
M  V30 60 1 54 12
M  V30 61 1 13 55 CFG=1
M  V30 62 1 56 14
M  V30 63 1 57 14
M  V30 64 1 58 15
M  V30 65 1 59 15
M  V30 66 1 60 20
M  V30 67 1 61 20
M  V30 68 1 62 21
M  V30 69 1 63 24
M  V30 70 1 64 24
M  V30 71 1 65 26
M  V30 72 1 66 27
M  V30 73 1 67 28
M  V30 74 1 68 28
M  V30 75 1 69 29
M  V30 76 1 30 70 CFG=1
M  V30 77 1 71 31
M  V30 78 1 72 32
M  V30 79 1 73 33
M  V30 80 1 74 33
M  V30 81 1 75 34
M  V30 82 1 76 35
M  V30 83 1 77 35
M  V30 84 1 78 36
M  V30 85 1 79 36
M  V30 86 1 80 36
M  V30 87 1 81 37
M  V30 88 1 82 37
M  V30 89 1 38 83 CFG=3
M  V30 90 1 84 39
M  V30 91 1 85 41
M  V30 92 1 86 42
M  V30 93 1 87 42
M  V30 94 1 43 88 CFG=1
M  V30 95 1 89 15
M  V30 END BOND
M  V30 END CTAB
M  END
>  <i_epik_Tot_Q>  (1) 
1

>  <i_epik_Tot_abs_Q>  (1) 
1

>  <i_i_glide_confnum>  (1) 
661

>  <i_i_glide_lignum>  (1) 
66

>  <i_i_glide_posenum>  (1) 
35

>  <i_i_glide_rotatable_bonds>  (1) 
10

>  <i_lp_mmshare_version>  (1) 
72125

>  <i_m_source_file_index>  (1) 
41

>  <i_f3d_flags>  (1) 
0

>  <num_sample>  (1) 
100

>  <b_lp_Chiralities_Consistent>  (1) 
1

>  <r_epik_Charging_Adjusted_Penalty>  (1) 
0.00021732795814705282

>  <r_epik_Ionization_Penalty>  (1) 
0.031196808922400864

>  <r_epik_Ionization_Penalty_Charging>  (1) 
0.00021732795814705282

>  <r_epik_Ionization_Penalty_Neutral>  (1) 
0.030979480964253809

>  <r_epik_State_Penalty>  (1) 
-0

>  <r_glide_ring_energy>  (1) 
0

>  <r_i_docking_score>  (1) 
-5.7079906629310138

>  <r_i_glide_ecoul>  (1) 
-3.2419789206543808

>  <r_i_glide_eff_state_penalty>  (1) 
-0

>  <r_i_glide_einternal>  (1) 
22.263948184369134

>  <r_i_glide_emodel>  (1) 
-43.048695021322416

>  <r_i_glide_emodel_strain>  (1) 
0.93901327906769438

>  <r_i_glide_energy>  (1) 
-40.927195002023169

>  <r_i_glide_erotb>  (1) 
0.31563021086283022

>  <r_i_glide_esite>  (1) 
-0.055672166393859301

>  <r_i_glide_evdw>  (1) 
-37.685216081368786

>  <r_i_glide_gscore>  (1) 
-5.7079906629310138

>  <r_i_glide_gscore_strain>  (1) 
0

>  <r_i_glide_hbond>  (1) 
-0.21913909673903179

>  <r_i_glide_ligand_efficiency>  (1) 
-0.13274396890537241

>  <r_i_glide_ligand_efficiency_ln>  (1) 
-1.1988554406937657

>  <r_i_glide_ligand_efficiency_sa>  (1) 
-0.46505496319111744

>  <r_i_glide_lipo>  (1) 
-2.1641380249656463

>  <r_i_glide_metal>  (1) 
-0

>  <r_i_glide_rewards>  (1) 
-1.2141139435287089

>  <r_lp_Energy>  (1) 
52.272574999999996

>  <r_lp_tautomer_probability>  (1) 
1

>  <s_epik_Chemistry_Notes>  (1) 
This compound has an ester and may undergo hydrolysis at high or low pH. This compound contains an acetal/aminal-like group ( X-CH(R)-Y where X, Y are N, S, or O) that may be acid/base labile, releasing an aldehyde. This compound has a N-S or N-O group and may undergo hydrolysis at high or low pH.

>  <s_epik_cmdline>  (1) 
J2VwaWtfcHl0aG9uJywgJy1waHQnLCAnMS4wJywgJy1waCcsICc3LjQnLCAnLXRuJywgJzgnLCAnLW1hJywgJzUwMCcsICctaW1hZScsICc8aW5maWxlLm1hZT4nLCAnLW9tYWUnLCAnPG91dGZpbGUubWFlPic=

>  <s_epik_input>  (1) 
W2NIXTFbY0hdW2NIXVtjSF1jKFtDSDJdMiljMVtOSF1bQ0BAXTIzW0NAQEhdKFtDSDJdMylbQ0BASF0oT0MoPU8pW05IMl0pW0NIMl1bQ0gyXU9bQ0BASF0oYyhjNDUpW2NIXVtjSF1bY0hdW2NIXTUpW0NIMl1bQ0gyXVtDQEBIXShbQ0gzXSlbQ0BASF00TjZPW0NIXT1DKFtDQEBIXTY3KVtDSDJdW0NIMl1bQ0BIXShbQ0gyXTcpW05IXVtDSDJdW05IMl0=

>  <s_glide_docking_method>  (1) 
confgen

>  <s_i_glide_gridfile>  (1) 
gpcr_drd2_6luq_protein_autoprepared_prepared

>  <s_lp_Force_Field>  (1) 
S-OPLS

>  <s_lp_Variant>  (1) 
DiffSBDD_40-1

>  <s_m_source_file>  (1) 
generated_generic_title2_ligand_DiffSBDD_2026-06-23_prepared.sdf

>  <GenAI_Model>  (1) 
DiffSBDD

>  <Protein>  (1) 
generic_title2

$$$$
DiffSBDD_14
     RDKit          3D

  0  0  0  0  0  0  0  0  0  0999 V3000
M  V30 BEGIN CTAB
M  V30 COUNTS 47 48 0 0 1
M  V30 BEGIN ATOM
M  V30 1 N 8.975387 5.190903 -9.772869 0
M  V30 2 C 8.900288 5.053246 -14.414941 0
M  V30 3 N 9.374206 4.390227 -13.184790 0 CHG=1
M  V30 4 C 11.489734 9.084072 -6.366439 0
M  V30 5 C 9.163921 5.636635 -11.071219 0
M  V30 6 C 7.722230 5.945842 -14.009037 0
M  V30 7 C 9.375418 7.438016 -8.733357 0
M  V30 8 C 6.219569 4.118812 -13.135536 0
M  V30 9 C 11.810600 9.121203 -4.995795 0
M  V30 10 C 11.144242 7.860338 -6.977563 0
M  V30 11 C 11.786376 7.928281 -4.230762 0
M  V30 12 C 11.404372 6.716125 -4.842961 0
M  V30 13 C 11.093407 6.682268 -6.209116 0
M  V30 14 C 9.080760 5.927935 -8.729906 0
M  V30 15 O 9.817490 6.599195 -11.481737 0
M  V30 16 C 6.349442 6.274662 -11.883508 0
M  V30 17 C 10.835005 7.808165 -8.463594 0
M  V30 18 N 12.053863 6.869744 -1.985021 0
M  V30 19 N 12.175403 7.930103 -2.875952 0
M  V30 20 C 8.453090 4.724373 -12.082827 0 CFG=1
M  V30 21 C 7.161254 5.282291 -12.747246 0
M  V30 22 O 12.175378 9.190225 -2.267024 0
M  V30 23 H 8.563139 4.281928 -15.108374 0
M  V30 24 H 9.708307 5.590232 -14.907404 0
M  V30 25 H 10.317192 4.686953 -12.961117 0
M  V30 26 H 11.526254 9.989773 -6.950958 0
M  V30 27 H 6.985578 6.060788 -14.805148 0
M  V30 28 H 8.091862 6.942809 -13.764880 0
M  V30 29 H 8.760602 7.897844 -7.959704 0
M  V30 30 H 9.031144 7.912350 -9.649853 0
M  V30 31 H 6.716968 3.366331 -13.747738 0
M  V30 32 H 5.833342 3.611876 -12.250023 0
M  V30 33 H 5.360257 4.478178 -13.702624 0
M  V30 34 H 12.097430 10.054999 -4.540014 0
M  V30 35 H 11.380282 5.802867 -4.267897 0
M  V30 36 H 10.832243 5.745037 -6.671859 0
M  V30 37 H 8.946729 5.504729 -7.731783 0
M  V30 38 H 6.922265 7.159671 -11.603024 0
M  V30 39 H 5.462582 6.625872 -12.412066 0
M  V30 40 H 6.014092 5.808409 -10.955822 0
M  V30 41 H 11.033738 8.789510 -8.896596 0
M  V30 42 H 11.515226 7.117492 -8.963260 0
M  V30 43 H 11.066176 6.667924 -1.841030 0
M  V30 44 H 12.492474 6.042473 -2.385009 0
M  V30 45 H 8.218135 3.784958 -11.579686 0
M  V30 46 H 13.081722 9.413004 -2.100955 0
M  V30 47 H 9.366783 3.389930 -13.317969 0
M  V30 END ATOM
M  V30 BEGIN BOND
M  V30 1 1 3 2
M  V30 2 1 5 1
M  V30 3 1 6 2
M  V30 4 2 9 4
M  V30 5 1 10 4
M  V30 6 1 11 9
M  V30 7 2 12 11
M  V30 8 2 13 10
M  V30 9 1 13 12
M  V30 10 2 14 1
M  V30 11 1 14 7
M  V30 12 2 15 5
M  V30 13 1 17 7
M  V30 14 1 17 10
M  V30 15 1 19 11
M  V30 16 1 19 18
M  V30 17 1 20 3
M  V30 18 1 20 5
M  V30 19 1 21 6
M  V30 20 1 21 8
M  V30 21 1 21 16
M  V30 22 1 21 20
M  V30 23 1 22 19
M  V30 24 1 23 2
M  V30 25 1 24 2
M  V30 26 1 25 3
M  V30 27 1 26 4
M  V30 28 1 27 6
M  V30 29 1 28 6
M  V30 30 1 29 7
M  V30 31 1 30 7
M  V30 32 1 31 8
M  V30 33 1 32 8
M  V30 34 1 33 8
M  V30 35 1 34 9
M  V30 36 1 35 12
M  V30 37 1 36 13
M  V30 38 1 37 14
M  V30 39 1 38 16
M  V30 40 1 39 16
M  V30 41 1 40 16
M  V30 42 1 41 17
M  V30 43 1 42 17
M  V30 44 1 43 18
M  V30 45 1 44 18
M  V30 46 1 20 45 CFG=1
M  V30 47 1 46 22
M  V30 48 1 47 3
M  V30 END BOND
M  V30 END CTAB
M  END
>  <i_epik_Tot_Q>  (1) 
1

>  <i_epik_Tot_abs_Q>  (1) 
1

>  <i_i_glide_confnum>  (1) 
323

>  <i_i_glide_lignum>  (1) 
29

>  <i_i_glide_posenum>  (1) 
240

>  <i_i_glide_rotatable_bonds>  (1) 
7

>  <i_lp_mmshare_version>  (1) 
72125

>  <i_m_source_file_index>  (1) 
15

>  <i_f3d_flags>  (1) 
0

>  <num_sample>  (1) 
100

>  <b_lp_Chiralities_Consistent>  (1) 
1

>  <r_epik_Charging_Adjusted_Penalty>  (1) 
1.3617227199011863

>  <r_epik_Ionization_Penalty>  (1) 
0.68407859148239814

>  <r_epik_Ionization_Penalty_Charging>  (1) 
0.68086135995059327

>  <r_epik_Ionization_Penalty_Neutral>  (1) 
0.0032172315318048095

>  <r_epik_State_Penalty>  (1) 
0.68086135995059305

>  <r_glide_ring_energy>  (1) 
1.7357529854928366

>  <r_i_docking_score>  (1) 
-5.7064693143883876

>  <r_i_glide_ecoul>  (1) 
-7.2317717066863612

>  <r_i_glide_eff_state_penalty>  (1) 
0.68086135995059305

>  <r_i_glide_einternal>  (1) 
2.5816350417211895

>  <r_i_glide_emodel>  (1) 
-62.935661420211915

>  <r_i_glide_emodel_strain>  (1) 
0.17160304846327534

>  <r_i_glide_energy>  (1) 
-41.81084765488535

>  <r_i_glide_erotb>  (1) 
1.1872890279772172

>  <r_i_glide_esite>  (1) 
-0.087514456964203791

>  <r_i_glide_evdw>  (1) 
-34.579075948198991

>  <r_i_glide_gscore>  (1) 
-6.3873306743389806

>  <r_i_glide_gscore_strain>  (1) 
0

>  <r_i_glide_hbond>  (1) 
-0.17417985670260808

>  <r_i_glide_ligand_efficiency>  (1) 
-0.25938496883583578

>  <r_i_glide_ligand_efficiency_ln>  (1) 
-1.3948692489621992

>  <r_i_glide_ligand_efficiency_sa>  (1) 
-0.7268068844588339

>  <r_i_glide_lipo>  (1) 
-2.0189128061654795

>  <r_i_glide_metal>  (1) 
-0

>  <r_i_glide_rewards>  (1) 
-2.4802930290710026

>  <r_lp_Energy>  (1) 
33.931866999999997

>  <s_epik_Chemistry_Notes>  (1) 
This compound has an imine and may undergo hydrolysis. This compound has a N-S or N-O group and may undergo hydrolysis at high or low pH.

>  <s_epik_cmdline>  (1) 
J2VwaWtfcHl0aG9uJywgJy1waHQnLCAnMS4wJywgJy1waCcsICc3LjQnLCAnLXRuJywgJzgnLCAnLW1hJywgJzUwMCcsICctaW1hZScsICc8aW5maWxlLm1hZT4nLCAnLW9tYWUnLCAnPG91dGZpbGUubWFlPic=

>  <s_epik_input>  (1) 
W0NIM11DMShbQ0gzXSlbQ0gyXVtDSDJdW05IXVtDQEhdMUMoPU8pL049W0NIXVxbQ0gyXVtDSDJdYzJbY0hdW2NIXWMoW2NIXVtjSF0yKU4oW05IMl0pW09IXQ==

>  <s_glide_docking_method>  (1) 
confgen

>  <s_i_glide_gridfile>  (1) 
gpcr_drd2_6luq_protein_autoprepared_prepared

>  <s_lp_Force_Field>  (1) 
S-OPLS

>  <s_lp_Variant>  (1) 
DiffSBDD_14-4

>  <s_m_source_file>  (1) 
generated_generic_title2_ligand_DiffSBDD_2026-06-23_prepared.sdf

>  <GenAI_Model>  (1) 
DiffSBDD

>  <Protein>  (1) 
generic_title2

$$$$
DiffSBDD_76
     RDKit          3D

  0  0  0  0  0  0  0  0  0  0999 V3000
M  V30 BEGIN CTAB
M  V30 COUNTS 53 56 0 0 1
M  V30 BEGIN ATOM
M  V30 1 N 8.659888 5.847377 -7.954555 0
M  V30 2 N 6.184700 6.028149 -16.311072 0
M  V30 3 C 10.529416 7.071761 -6.725639 0 CFG=1
M  V30 4 C 6.399153 5.644988 -14.919588 0
M  V30 5 F 10.491143 7.375101 -10.516859 0
M  V30 6 C 5.552745 7.059539 -16.827709 0
M  V30 7 C 11.176056 7.369028 -5.350236 0
M  V30 8 C 9.326132 6.123821 -6.693763 0
M  V30 9 C 7.347939 5.159440 -12.134369 0
M  V30 10 C 9.481848 5.218531 -8.969394 0
M  V30 11 C 12.346381 7.929577 -2.833396 0
M  V30 12 N 6.677694 5.277986 -17.312495 0
M  V30 13 C 12.344540 8.909119 -3.839893 0
M  V30 14 C 11.775376 6.669933 -3.079669 0
M  V30 15 C 11.827849 9.643578 -6.167560 0
M  V30 16 N 4.975456 7.990224 -15.985033 0
M  V30 17 C 11.443281 9.174191 -7.560960 0
M  V30 18 C 11.182969 6.391097 -4.331824 0
M  V30 19 C 7.882267 6.256601 -12.845037 0
M  V30 20 C 10.170944 8.361268 -7.467744 0
M  V30 21 O 12.175409 10.790229 -5.985050 0
M  V30 22 C 8.939020 7.005175 -12.283424 0
M  V30 23 N 5.531658 7.116572 -18.140177 0
M  V30 24 C 7.329857 6.641884 -14.210566 0
M  V30 25 C 7.872610 4.819427 -10.873581 0
M  V30 26 C 9.467225 6.656921 -11.037319 0
M  V30 27 C 8.934212 5.567181 -10.326289 0
M  V30 28 C 6.259545 5.965386 -18.397275 0
M  V30 29 C 11.775382 8.627417 -5.102792 0
M  V30 30 H 8.088350 6.619332 -8.306769 0
M  V30 31 H 11.325572 6.574873 -7.280369 0
M  V30 32 H 5.434079 5.578229 -14.417050 0
M  V30 33 H 6.839139 4.646659 -14.905524 0
M  V30 34 H 8.574317 6.455011 -5.985010 0
M  V30 35 H 9.728926 5.190228 -6.385025 0
M  V30 36 H 6.535961 4.583064 -12.549331 0
M  V30 37 H 9.517953 4.141165 -8.816396 0
M  V30 38 H 10.507246 5.575963 -8.920047 0
M  V30 39 H 12.790781 8.143418 -1.872778 0
M  V30 40 H 12.796415 9.871964 -3.651646 0
M  V30 41 H 11.777639 5.916374 -2.305379 0
M  V30 42 H 4.506325 8.809424 -16.349650 0
M  V30 43 H 5.035983 7.904657 -14.981359 0
M  V30 44 H 11.375426 9.990229 -8.270581 0
M  V30 45 H 12.254062 8.550606 -7.940428 0
M  V30 46 H 10.736311 5.436912 -4.503064 0
M  V30 47 H 9.776370 8.172312 -8.461346 0
M  V30 48 H 9.385907 8.905199 -6.938431 0
M  V30 49 H 9.345010 7.849478 -12.805025 0
M  V30 50 H 8.175397 6.790231 -14.870692 0
M  V30 51 H 6.847829 7.611114 -14.106027 0
M  V30 52 H 7.458545 3.990389 -10.323661 0
M  V30 53 H 6.483809 5.629871 -19.399168 0
M  V30 END ATOM
M  V30 BEGIN BOND
M  V30 1 1 4 2
M  V30 2 1 6 2
M  V30 3 1 7 3
M  V30 4 1 8 1
M  V30 5 1 8 3
M  V30 6 1 10 1
M  V30 7 1 12 2
M  V30 8 1 13 11
M  V30 9 2 14 11
M  V30 10 1 16 6
M  V30 11 1 17 15
M  V30 12 2 18 7
M  V30 13 1 18 14
M  V30 14 1 19 9
M  V30 15 1 20 3
M  V30 16 1 20 17
M  V30 17 2 21 15
M  V30 18 2 22 19
M  V30 19 2 23 6
M  V30 20 1 24 4
M  V30 21 1 24 19
M  V30 22 2 25 9
M  V30 23 1 26 5
M  V30 24 1 26 22
M  V30 25 1 27 10
M  V30 26 1 27 25
M  V30 27 2 27 26
M  V30 28 2 28 12
M  V30 29 1 28 23
M  V30 30 1 29 7
M  V30 31 2 29 13
M  V30 32 1 29 15
M  V30 33 1 30 1
M  V30 34 1 3 31 CFG=3
M  V30 35 1 32 4
M  V30 36 1 33 4
M  V30 37 1 34 8
M  V30 38 1 35 8
M  V30 39 1 36 9
M  V30 40 1 37 10
M  V30 41 1 38 10
M  V30 42 1 39 11
M  V30 43 1 40 13
M  V30 44 1 41 14
M  V30 45 1 42 16
M  V30 46 1 43 16
M  V30 47 1 44 17
M  V30 48 1 45 17
M  V30 49 1 46 18
M  V30 50 1 47 20
M  V30 51 1 48 20
M  V30 52 1 49 22
M  V30 53 1 50 24
M  V30 54 1 51 24
M  V30 55 1 52 25
M  V30 56 1 53 28
M  V30 END BOND
M  V30 END CTAB
M  END
>  <i_epik_Tot_Q>  (1) 
0

>  <i_epik_Tot_abs_Q>  (1) 
0

>  <i_i_glide_confnum>  (1) 
248

>  <i_i_glide_lignum>  (1) 
127

>  <i_i_glide_posenum>  (1) 
273

>  <i_i_glide_rotatable_bonds>  (1) 
7

>  <i_lp_mmshare_version>  (1) 
72125

>  <i_m_source_file_index>  (1) 
77

>  <i_f3d_flags>  (1) 
0

>  <num_sample>  (1) 
100

>  <b_lp_Chiralities_Consistent>  (1) 
1

>  <r_epik_Charging_Adjusted_Penalty>  (1) 
1.3366453936174523

>  <r_epik_Ionization_Penalty>  (1) 
1.3374163863907844

>  <r_epik_Ionization_Penalty_Charging>  (1) 
0

>  <r_epik_Ionization_Penalty_Neutral>  (1) 
1.3374163863907844

>  <r_epik_State_Penalty>  (1) 
1.3366453936174523

>  <r_glide_ring_energy>  (1) 
0

>  <r_i_docking_score>  (1) 
-5.7001799531354109

>  <r_i_glide_ecoul>  (1) 
-3.9866531618787509

>  <r_i_glide_eff_state_penalty>  (1) 
1.3366453936174523

>  <r_i_glide_einternal>  (1) 
8.0186638321483112

>  <r_i_glide_emodel>  (1) 
-49.666403139645162

>  <r_i_glide_emodel_strain>  (1) 
0.62658299547761231

>  <r_i_glide_energy>  (1) 
-35.654442715386317

>  <r_i_glide_erotb>  (1) 
0.75709287640511513

>  <r_i_glide_esite>  (1) 
-0.026465844969900645

>  <r_i_glide_evdw>  (1) 
-31.667789553507568

>  <r_i_glide_gscore>  (1) 
-7.0368253467528632

>  <r_i_glide_gscore_strain>  (1) 
0

>  <r_i_glide_hbond>  (1) 
-0.2112765271433609

>  <r_i_glide_ligand_efficiency>  (1) 
-0.19655792941846245

>  <r_i_glide_ligand_efficiency_ln>  (1) 
-1.305196665176003

>  <r_i_glide_ligand_efficiency_sa>  (1) 
-0.60388823377431344

>  <r_i_glide_lipo>  (1) 
-2.4963620589174509

>  <r_i_glide_metal>  (1) 
-0

>  <r_i_glide_rewards>  (1) 
-2.8784263401700749

>  <r_lp_Energy>  (1) 
25.916193

>  <r_lp_tautomer_probability>  (1) 
0.99994999147066566

>  <s_epik_cmdline>  (1) 
J2VwaWtfcHl0aG9uJywgJy1waHQnLCAnMS4wJywgJy1waCcsICc3LjQnLCAnLXRuJywgJzgnLCAnLW1hJywgJzUwMCcsICctaW1hZScsICc8aW5maWxlLm1hZT4nLCAnLW9tYWUnLCAnPG91dGZpbGUubWFlPic=

>  <s_epik_input>  (1) 
W2NIXTFbY0hdW2NIXVtjSF1jKGMxMilDKD1PKVtDSDJdW0NIMl1bQ0BIXTJbQ0gyXVtOSF1bQ0gyXWMoYyhGKVtjSF0zKVtjSF1bY0hdYzNbQ0gyXVtDSDJdbjRjKFtOSDJdKW5bY0hdbjQ=

>  <s_glide_docking_method>  (1) 
confgen

>  <s_i_glide_gridfile>  (1) 
gpcr_drd2_6luq_protein_autoprepared_prepared

>  <s_lp_Force_Field>  (1) 
S-OPLS

>  <s_lp_Variant>  (1) 
DiffSBDD_76-4

>  <s_m_source_file>  (1) 
generated_generic_title2_ligand_DiffSBDD_2026-06-23_prepared.sdf

>  <GenAI_Model>  (1) 
DiffSBDD

>  <Protein>  (1) 
generic_title2

$$$$
DiffSBDD_7
     RDKit          3D

  0  0  0  0  0  0  0  0  0  0999 V3000
M  V30 BEGIN CTAB
M  V30 COUNTS 63 65 0 0 1
M  V30 BEGIN ATOM
M  V30 1 C 6.333895 6.040137 -16.859647 0
M  V30 2 C 6.853609 6.164308 -18.167140 0
M  V30 3 C 6.643976 6.916644 -20.589861 0
M  V30 4 C 10.707670 6.641098 -4.967344 0
M  V30 5 F 7.664284 6.083696 -20.798856 0
M  V30 6 C 9.996757 6.455458 -7.430023 0
M  V30 7 N 8.670051 6.486035 -12.344500 0
M  V30 8 C 11.470854 8.348023 -6.630516 0 CFG=1
M  V30 9 C 11.009444 8.050876 -9.134869 0 CFG=2
M  V30 10 C 8.633499 4.139840 -13.007340 0
M  V30 11 C 8.224301 3.081586 -15.295588 0
M  V30 12 C 7.088740 3.826400 -15.953168 0
M  V30 13 C 10.503328 6.617532 -8.882699 0 CFG=2
M  V30 14 C 11.990349 8.540097 -8.056589 0
M  V30 15 F 10.439287 9.151311 -6.377838 0
M  V30 16 C 6.089616 6.788874 -19.178170 0
M  V30 17 C 8.082412 7.827638 -12.415186 0
M  V30 18 F 5.686950 6.632701 -21.474072 0
M  V30 19 C 11.094194 6.876681 -6.419386 0 CFG=1
M  V30 20 S 6.718661 5.825427 -14.065546 0
M  V30 21 C 9.496440 6.124410 -9.968710 0
M  V30 22 C 8.060497 2.963430 -13.769006 0
M  V30 23 C 9.848547 6.362759 -11.469543 0
M  V30 24 C 7.166811 5.345302 -15.774847 0 CFG=2
M  V30 25 C 9.872656 9.050333 -9.317864 0
M  V30 26 C 5.044932 6.540725 -16.570557 0
M  V30 27 C 4.287428 7.168232 -17.576959 0
M  V30 28 F 7.058182 8.165897 -20.794969 0
M  V30 29 C 8.141660 5.396200 -13.060237 0
M  V30 30 C 4.808032 7.294014 -18.877539 0
M  V30 31 H 7.836005 5.775446 -18.394288 0
M  V30 32 H 9.775406 7.152857 -4.785063 0
M  V30 33 H 10.572959 5.590200 -4.746727 0
M  V30 34 H 11.457057 7.025048 -4.274770 0
M  V30 35 H 9.089686 7.041760 -7.274348 0
M  V30 36 H 9.714181 5.418170 -7.254773 0
M  V30 37 H 12.214513 8.676984 -5.910382 0
M  V30 38 H 11.585982 8.049802 -10.059428 0
M  V30 39 H 9.488043 3.925327 -12.385275 0
M  V30 40 H 8.269061 2.076682 -15.717486 0
M  V30 41 H 9.145318 3.590264 -15.585019 0
M  V30 42 H 6.175419 3.437138 -15.531181 0
M  V30 43 H 7.100005 3.575571 -17.015006 0
M  V30 44 H 11.375414 5.990234 -8.897448 0
M  V30 45 H 12.184074 9.590216 -8.223213 0
M  V30 46 H 12.944559 8.023803 -8.166241 0
M  V30 47 H 7.787504 8.101973 -13.427044 0
M  V30 48 H 7.206319 7.888343 -11.768347 0
M  V30 49 H 8.786865 8.601041 -12.121458 0
M  V30 50 H 11.981404 6.269311 -6.606442 0
M  V30 51 H 8.575425 6.641221 -9.767800 0
M  V30 52 H 9.266008 5.070297 -9.817438 0
M  V30 53 H 8.577131 2.070896 -13.415253 0
M  V30 54 H 7.016834 2.818455 -13.487779 0
M  V30 55 H 10.541224 5.608291 -11.837535 0
M  V30 56 H 10.400877 7.290706 -11.590338 0
M  V30 57 H 8.195847 5.672471 -15.930690 0
M  V30 58 H 9.255383 9.179034 -8.429738 0
M  V30 59 H 10.334262 9.990181 -9.585019 0
M  V30 60 H 9.190490 8.790384 -10.115357 0
M  V30 61 H 4.635058 6.440822 -15.583919 0
M  V30 62 H 3.303449 7.551091 -17.351135 0
M  V30 63 H 4.222182 7.775396 -19.647391 0
M  V30 END ATOM
M  V30 BEGIN BOND
M  V30 1 2 2 1
M  V30 2 1 5 3
M  V30 3 1 12 11
M  V30 4 1 13 6
M  V30 5 1 13 9
M  V30 6 1 14 8
M  V30 7 1 14 9
M  V30 8 1 15 8
M  V30 9 1 16 2
M  V30 10 1 16 3
M  V30 11 1 17 7
M  V30 12 1 18 3
M  V30 13 1 19 4
M  V30 14 1 19 6
M  V30 15 1 19 8
M  V30 16 1 21 13
M  V30 17 1 22 10
M  V30 18 1 22 11
M  V30 19 1 23 7
M  V30 20 1 23 21
M  V30 21 1 24 1
M  V30 22 1 24 12
M  V30 23 1 24 20
M  V30 24 1 25 9
M  V30 25 1 26 1
M  V30 26 2 27 26
M  V30 27 1 28 3
M  V30 28 1 29 7
M  V30 29 2 29 10
M  V30 30 1 29 20
M  V30 31 2 30 16
M  V30 32 1 30 27
M  V30 33 1 31 2
M  V30 34 1 32 4
M  V30 35 1 33 4
M  V30 36 1 34 4
M  V30 37 1 35 6
M  V30 38 1 36 6
M  V30 39 1 8 37 CFG=1
M  V30 40 1 9 38 CFG=3
M  V30 41 1 39 10
M  V30 42 1 40 11
M  V30 43 1 41 11
M  V30 44 1 42 12
M  V30 45 1 43 12
M  V30 46 1 13 44 CFG=1
M  V30 47 1 45 14
M  V30 48 1 46 14
M  V30 49 1 47 17
M  V30 50 1 48 17
M  V30 51 1 49 17
M  V30 52 1 19 50 CFG=3
M  V30 53 1 51 21
M  V30 54 1 52 21
M  V30 55 1 53 22
M  V30 56 1 54 22
M  V30 57 1 55 23
M  V30 58 1 56 23
M  V30 59 1 24 57 CFG=3
M  V30 60 1 58 25
M  V30 61 1 59 25
M  V30 62 1 60 25
M  V30 63 1 61 26
M  V30 64 1 62 27
M  V30 65 1 63 30
M  V30 END BOND
M  V30 END CTAB
M  END
>  <i_epik_Tot_Q>  (1) 
0

>  <i_epik_Tot_abs_Q>  (1) 
0

>  <i_i_glide_confnum>  (1) 
88

>  <i_i_glide_lignum>  (1) 
10

>  <i_i_glide_posenum>  (1) 
23

>  <i_i_glide_rotatable_bonds>  (1) 
6

>  <i_lp_mmshare_version>  (1) 
72125

>  <i_m_source_file_index>  (1) 
8

>  <i_f3d_flags>  (1) 
0

>  <num_sample>  (1) 
100

>  <b_lp_Chiralities_Consistent>  (1) 
1

>  <r_epik_Charging_Adjusted_Penalty>  (1) 
4.04831774087807e-08

>  <r_epik_Ionization_Penalty>  (1) 
4.3565120574992374e-05

>  <r_epik_Ionization_Penalty_Charging>  (1) 
4.04831774087807e-08

>  <r_epik_Ionization_Penalty_Neutral>  (1) 
4.3524637397583592e-05

>  <r_epik_State_Penalty>  (1) 
-0

>  <r_glide_ring_energy>  (1) 
0

>  <r_i_docking_score>  (1) 
-5.6976843063456482

>  <r_i_glide_ecoul>  (1) 
-0.050128861685790047

>  <r_i_glide_eff_state_penalty>  (1) 
-0

>  <r_i_glide_einternal>  (1) 
11.191962619888672

>  <r_i_glide_emodel>  (1) 
-22.570826759020722

>  <r_i_glide_emodel_strain>  (1) 
2.3625507885804709

>  <r_i_glide_energy>  (1) 
-23.933622628033955

>  <r_i_glide_erotb>  (1) 
0.50801221273644082

>  <r_i_glide_esite>  (1) 
-0.0072043801523866847

>  <r_i_glide_evdw>  (1) 
-23.883493766348167

>  <r_i_glide_gscore>  (1) 
-5.6976843063456482

>  <r_i_glide_gscore_strain>  (1) 
0

>  <r_i_glide_hbond>  (1) 
0

>  <r_i_glide_ligand_efficiency>  (1) 
-0.1899228102115216

>  <r_i_glide_ligand_efficiency_ln>  (1) 
-1.2945759556445662

>  <r_i_glide_ligand_efficiency_sa>  (1) 
-0.59013432951134548

>  <r_i_glide_lipo>  (1) 
-3.2764321738172963

>  <r_i_glide_metal>  (1) 
-0

>  <r_i_glide_rewards>  (1) 
-1.7203659475421285

>  <r_lp_Energy>  (1) 
42.291399999999996

>  <r_lp_tautomer_probability>  (1) 
1

>  <s_epik_Chemistry_Notes>  (1) 
This compound has an imine and may undergo hydrolysis.

>  <s_epik_cmdline>  (1) 
J2VwaWtfcHl0aG9uJywgJy1waHQnLCAnMS4wJywgJy1waCcsICc3LjQnLCAnLXRuJywgJzgnLCAnLW1hJywgJzUwMCcsICctaW1hZScsICc8aW5maWxlLm1hZT4nLCAnLW9tYWUnLCAnPG91dGZpbGUubWFlPic=

>  <s_epik_input>  (1) 
W2NIXTFbY0hdW2NIXWMoQyhGKShGKUYpW2NIXWMxW0NAQEhdMltDSDJdW0NIMl1bQ0gyXVtDSF09QyhTMilOKFtDSDNdKVtDSDJdW0NIMl1bQ0BIXShbQ0gyXVtDQEBIXTNbQ0gzXSlbQ0BASF0oW0NIM10pW0NIMl1bQ0BIXTNG

>  <s_glide_docking_method>  (1) 
confgen

>  <s_i_glide_gridfile>  (1) 
gpcr_drd2_6luq_protein_autoprepared_prepared

>  <s_lp_Force_Field>  (1) 
S-OPLS

>  <s_lp_Variant>  (1) 
DiffSBDD_7-1

>  <s_m_source_file>  (1) 
generated_generic_title2_ligand_DiffSBDD_2026-06-23_prepared.sdf

>  <GenAI_Model>  (1) 
DiffSBDD

>  <Protein>  (1) 
generic_title2

$$$$
DiffSBDD_19
     RDKit          3D

  0  0  0  0  0  0  0  0  0  0999 V3000
M  V30 BEGIN CTAB
M  V30 COUNTS 40 43 0 0 1
M  V30 BEGIN ATOM
M  V30 1 C 11.039636 8.488009 -5.613743 0 CFG=1
M  V30 2 C 9.773813 5.848964 -11.172335 0 CFG=1
M  V30 3 N 10.877958 7.908274 -9.383287 0
M  V30 4 C 7.523404 5.179115 -13.958904 0 CFG=2
M  V30 5 O 12.174485 9.362116 -5.456728 0
M  V30 6 C 10.746011 6.964345 -11.539026 0 CFG=1
M  V30 7 C 11.395242 8.159240 -8.160547 0
M  V30 8 C 7.646333 7.387417 -12.863773 0
M  V30 9 C 7.084063 6.609405 -13.752578 0
M  V30 10 C 10.990925 9.751017 -4.769238 0
M  V30 11 F 11.801873 7.146639 -3.815101 0
M  V30 12 C 9.342830 7.307179 -11.071172 0 CFG=2
M  V30 13 C 10.405274 8.444359 -7.005172 0
M  V30 14 C 9.299612 4.707016 -12.082247 0
M  V30 15 C 9.007515 4.922855 -13.583472 0
M  V30 16 C 11.194405 7.100376 -5.001309 0
M  V30 17 C 9.457174 7.889591 -9.668657 0
M  V30 18 F 7.361547 4.853621 -15.241274 0
M  V30 19 C 8.375417 8.005626 -11.973907 0
M  V30 20 C 11.712785 7.533259 -10.505747 0
M  V30 21 O 12.604892 8.155515 -7.949676 0
M  V30 22 H 9.942163 5.416100 -10.187634 0
M  V30 23 H 6.853038 4.521446 -13.404072 0
M  V30 24 H 11.006040 7.085561 -12.587859 0
M  V30 25 H 6.307760 6.976825 -14.408432 0
M  V30 26 H 10.575369 10.677467 -5.159223 0
M  V30 27 H 11.064057 9.675112 -3.686028 0
M  V30 28 H 9.874276 9.369344 -7.184351 0
M  V30 29 H 9.631592 7.677637 -6.973349 0
M  V30 30 H 8.437620 4.241771 -11.602682 0
M  V30 31 H 10.093959 3.961308 -12.031545 0
M  V30 32 H 9.270319 3.990409 -14.073361 0
M  V30 33 H 9.688066 5.646031 -14.027958 0
M  V30 34 H 10.218957 6.632603 -4.852608 0
M  V30 35 H 11.784620 6.455662 -5.651184 0
M  V30 36 H 8.975611 7.203145 -8.979830 0
M  V30 37 H 9.006974 8.880403 -9.596069 0
M  V30 38 H 8.227397 9.058310 -11.787512 0
M  V30 39 H 12.440133 6.790227 -10.192358 0
M  V30 40 H 12.270543 8.388591 -10.873575 0
M  V30 END ATOM
M  V30 BEGIN BOND
M  V30 1 1 5 1
M  V30 2 1 6 2
M  V30 3 1 7 3
M  V30 4 1 9 4
M  V30 5 2 9 8
M  V30 6 1 10 1
M  V30 7 1 10 5
M  V30 8 1 12 2
M  V30 9 1 12 6
M  V30 10 1 1 13 CFG=3
M  V30 11 1 13 7
M  V30 12 1 14 2
M  V30 13 1 15 4
M  V30 14 1 15 14
M  V30 15 1 16 1
M  V30 16 1 16 11
M  V30 17 1 17 3
M  V30 18 1 12 17 CFG=1
M  V30 19 1 18 4
M  V30 20 2 19 8
M  V30 21 1 19 12
M  V30 22 1 20 3
M  V30 23 1 20 6
M  V30 24 2 21 7
M  V30 25 1 2 22 CFG=1
M  V30 26 1 4 23 CFG=1
M  V30 27 1 6 24 CFG=3
M  V30 28 1 25 9
M  V30 29 1 26 10
M  V30 30 1 27 10
M  V30 31 1 28 13
M  V30 32 1 29 13
M  V30 33 1 30 14
M  V30 34 1 31 14
M  V30 35 1 32 15
M  V30 36 1 33 15
M  V30 37 1 34 16
M  V30 38 1 35 16
M  V30 39 1 36 17
M  V30 40 1 37 17
M  V30 41 1 38 19
M  V30 42 1 39 20
M  V30 43 1 40 20
M  V30 END BOND
M  V30 END CTAB
M  END
>  <i_epik_Tot_Q>  (1) 
0

>  <i_epik_Tot_abs_Q>  (1) 
0

>  <i_i_glide_confnum>  (1) 
5

>  <i_i_glide_lignum>  (1) 
36

>  <i_i_glide_posenum>  (1) 
345

>  <i_i_glide_rotatable_bonds>  (1) 
4

>  <i_lp_mmshare_version>  (1) 
72125

>  <i_m_source_file_index>  (1) 
20

>  <i_f3d_flags>  (1) 
0

>  <num_sample>  (1) 
100

>  <b_lp_Chiralities_Consistent>  (1) 
1

>  <r_epik_Charging_Adjusted_Penalty>  (1) 
0

>  <r_epik_Ionization_Penalty>  (1) 
4.7432699255447401e-09

>  <r_epik_Ionization_Penalty_Charging>  (1) 
0

>  <r_epik_Ionization_Penalty_Neutral>  (1) 
4.7432699255447401e-09

>  <r_epik_State_Penalty>  (1) 
-0

>  <r_glide_ring_energy>  (1) 
0

>  <r_i_docking_score>  (1) 
-5.6871939876383069

>  <r_i_glide_ecoul>  (1) 
-1.4406524539602168

>  <r_i_glide_eff_state_penalty>  (1) 
-0

>  <r_i_glide_einternal>  (1) 
5.3452352324386716

>  <r_i_glide_emodel>  (1) 
-35.419796935085728

>  <r_i_glide_emodel_strain>  (1) 
0.50870387172759024

>  <r_i_glide_energy>  (1) 
-29.425555769535773

>  <r_i_glide_erotb>  (1) 
0.62952724297124418

>  <r_i_glide_esite>  (1) 
0

>  <r_i_glide_evdw>  (1) 
-27.984903315575558

>  <r_i_glide_gscore>  (1) 
-5.6871939876383069

>  <r_i_glide_gscore_strain>  (1) 
0

>  <r_i_glide_hbond>  (1) 
0

>  <r_i_glide_ligand_efficiency>  (1) 
-0.27081876131610982

>  <r_i_glide_ligand_efficiency_ln>  (1) 
-1.4061472213860458

>  <r_i_glide_ligand_efficiency_sa>  (1) 
-0.74716842801260375

>  <r_i_glide_lipo>  (1) 
-1.7557413039010306

>  <r_i_glide_metal>  (1) 
-0

>  <r_i_glide_rewards>  (1) 
-2.9456368928357097

>  <r_lp_Energy>  (1) 
2.731881

>  <r_lp_tautomer_probability>  (1) 
1

>  <s_epik_cmdline>  (1) 
J2VwaWtfcHl0aG9uJywgJy1waHQnLCAnMS4wJywgJy1waCcsICc3LjQnLCAnLXRuJywgJzgnLCAnLW1hJywgJzUwMCcsICctaW1hZScsICc8aW5maWxlLm1hZT4nLCAnLW9tYWUnLCAnPG91dGZpbGUubWFlPic=

>  <s_epik_input>  (1) 
W0NIMl0xT0MxKFtDSDJdRilbQ0gyXUMoPU8pTihbQ0gyXTIpW0NIMl1bQ0BIXTNbQ0BASF0oQzIzNClbQ0gyXVtDSDJdW0NASF0oRilbQ0hdPUM9W0NIXTQ=

>  <s_glide_docking_method>  (1) 
confgen

>  <s_i_glide_gridfile>  (1) 
gpcr_drd2_6luq_protein_autoprepared_prepared

>  <s_lp_Force_Field>  (1) 
S-OPLS

>  <s_lp_Variant>  (1) 
DiffSBDD_19-1

>  <s_m_source_file>  (1) 
generated_generic_title2_ligand_DiffSBDD_2026-06-23_prepared.sdf

>  <GenAI_Model>  (1) 
DiffSBDD

>  <Protein>  (1) 
generic_title2

$$$$
DiffSBDD_94
     RDKit          3D

  0  0  0  0  0  0  0  0  0  0999 V3000
M  V30 BEGIN CTAB
M  V30 COUNTS 66 70 0 0 1
M  V30 BEGIN ATOM
M  V30 1 C 5.826821 6.496330 -13.127718 0
M  V30 2 C 9.461465 7.221147 -10.721314 0
M  V30 3 O 13.205555 9.590266 -4.690756 0
M  V30 4 C 7.192548 6.849953 -12.542814 0
M  V30 5 C 12.183978 9.061087 -5.509305 0 CFG=1
M  V30 6 N 7.585022 4.664651 -19.040342 0
M  V30 7 C 7.539853 5.178204 -20.297825 0
M  V30 8 C 5.994663 5.658361 -14.385958 0 CFG=2
M  V30 9 C 5.808488 6.062075 -18.432555 0
M  V30 10 C 11.366898 7.942158 -4.949730 0 CFG=1
M  V30 11 Cl 5.775387 3.235575 -13.185005 0
M  V30 12 C 10.865854 9.368164 -4.897577 0
M  V30 13 C 4.875133 6.508293 -17.304426 0 CFG=2
M  V30 14 C 8.811399 5.390551 -10.035498 0
M  V30 15 C 9.189891 5.891964 -11.421362 0 CFG=1
M  V30 16 C 6.812853 4.391325 -14.051683 0 CFG=2
M  V30 17 C 10.859588 7.129066 -7.397736 0 CFG=1
M  V30 18 C 3.581488 7.199466 -17.751856 0
M  V30 19 C 6.620214 6.164618 -20.683896 0
M  V30 20 O 8.823676 3.636601 -12.998008 0
M  V30 21 N 6.716396 5.103317 -18.109457 0
M  V30 22 N 9.775490 6.373622 -9.546028 0 CFG=2 CHG=1
M  V30 23 C 10.674626 6.948727 -5.856845 0
M  V30 24 N 8.122056 5.706157 -12.415240 0
M  V30 25 F 11.775708 7.399672 -3.743394 0
M  V30 26 C 9.535452 6.887010 -8.171840 0
M  V30 27 C 5.723360 6.625483 -19.719950 0
M  V30 28 C 12.423466 9.209811 -6.973584 0
M  V30 29 O 11.359691 8.803180 -9.075385 0
M  V30 30 C 8.014775 4.553891 -13.115266 0
M  V30 31 C 5.635700 7.317264 -16.231381 0
M  V30 32 C 11.528884 8.423580 -7.920783 0
M  V30 33 N 6.591763 6.462303 -15.485151 0 CHG=1
M  V30 34 H 5.249287 7.402223 -13.313275 0
M  V30 35 H 5.264480 5.926113 -12.387624 0
M  V30 36 H 8.630572 7.905570 -10.592364 0
M  V30 37 H 10.325903 7.744307 -11.131226 0
M  V30 38 H 13.856805 10.010665 -5.232677 0
M  V30 39 H 6.953432 7.291692 -11.585099 0
M  V30 40 H 7.674859 7.624935 -13.137252 0
M  V30 41 H 8.257031 4.790011 -21.004339 0
M  V30 42 H 5.004625 5.334105 -14.702961 0
M  V30 43 H 10.858759 9.897210 -3.944570 0
M  V30 44 H 10.058627 9.590492 -5.584750 0
M  V30 45 H 4.525590 5.590219 -16.842638 0
M  V30 46 H 9.096916 4.360371 -9.839704 0
M  V30 47 H 7.777140 5.592606 -9.742962 0
M  V30 48 H 10.137122 5.456148 -11.757906 0
M  V30 49 H 7.130888 3.884349 -14.962493 0
M  V30 50 H 11.548523 6.334167 -7.678464 0
M  V30 51 H 2.981637 6.527186 -18.362005 0
M  V30 52 H 2.976731 7.479338 -16.888434 0
M  V30 53 H 3.763650 8.100999 -18.328654 0
M  V30 54 H 6.608386 6.554095 -21.690741 0
M  V30 55 H 9.620456 6.937893 -5.584842 0
M  V30 56 H 11.047843 5.960864 -5.588679 0
M  V30 57 H 8.922470 6.163096 -7.631697 0
M  V30 58 H 8.962966 7.812111 -8.206672 0
M  V30 59 H 4.995847 7.385063 -19.958306 0
M  V30 60 H 12.175442 10.246024 -7.184068 0
M  V30 61 H 13.468797 9.025243 -7.216535 0
M  V30 62 H 4.949142 7.791536 -15.531016 0
M  V30 63 H 6.177606 8.129793 -16.714210 0
M  V30 64 H 7.325452 7.037659 -15.097411 0
M  V30 65 H 7.003117 5.838126 -16.170604 0
M  V30 66 H 10.704171 5.986402 -9.626376 0
M  V30 END ATOM
M  V30 BEGIN BOND
M  V30 1 1 4 1
M  V30 2 1 5 3 CFG=1
M  V30 3 1 7 6
M  V30 4 1 8 1
M  V30 5 1 10 5
M  V30 6 1 12 5
M  V30 7 1 12 10
M  V30 8 1 13 9
M  V30 9 1 15 2
M  V30 10 1 15 14
M  V30 11 1 16 8
M  V30 12 1 16 11
M  V30 13 1 18 13
M  V30 14 2 19 7
M  V30 15 2 21 6
M  V30 16 1 21 9
M  V30 17 1 22 2
M  V30 18 1 22 14
M  V30 19 1 23 10
M  V30 20 1 23 17
M  V30 21 1 24 4
M  V30 22 1 24 15
M  V30 23 1 10 25 CFG=1
M  V30 24 1 26 17
M  V30 25 1 26 22
M  V30 26 2 27 9
M  V30 27 1 27 19
M  V30 28 1 28 5
M  V30 29 1 30 16
M  V30 30 2 30 20
M  V30 31 1 30 24
M  V30 32 1 31 13
M  V30 33 1 32 17
M  V30 34 1 32 28
M  V30 35 2 32 29
M  V30 36 1 33 8
M  V30 37 1 33 31
M  V30 38 1 34 1
M  V30 39 1 35 1
M  V30 40 1 36 2
M  V30 41 1 37 2
M  V30 42 1 38 3
M  V30 43 1 39 4
M  V30 44 1 40 4
M  V30 45 1 41 7
M  V30 46 1 8 42 CFG=3
M  V30 47 1 43 12
M  V30 48 1 44 12
M  V30 49 1 13 45 CFG=1
M  V30 50 1 46 14
M  V30 51 1 47 14
M  V30 52 1 15 48 CFG=3
M  V30 53 1 16 49 CFG=3
M  V30 54 1 17 50 CFG=3
M  V30 55 1 51 18
M  V30 56 1 52 18
M  V30 57 1 53 18
M  V30 58 1 54 19
M  V30 59 1 55 23
M  V30 60 1 56 23
M  V30 61 1 57 26
M  V30 62 1 58 26
M  V30 63 1 59 27
M  V30 64 1 60 28
M  V30 65 1 61 28
M  V30 66 1 62 31
M  V30 67 1 63 31
M  V30 68 1 64 33
M  V30 69 1 65 33
M  V30 70 1 22 66 CFG=1
M  V30 END BOND
M  V30 END CTAB
M  END
>  <i_epik_Tot_Q>  (1) 
2

>  <i_epik_Tot_abs_Q>  (1) 
2

>  <i_i_glide_confnum>  (1) 
385

>  <i_i_glide_lignum>  (1) 
179

>  <i_i_glide_posenum>  (1) 
195

>  <i_i_glide_rotatable_bonds>  (1) 
8

>  <i_lp_mmshare_version>  (1) 
72125

>  <i_m_source_file_index>  (1) 
95

>  <i_f3d_flags>  (1) 
0

>  <num_sample>  (1) 
100

>  <b_lp_Chiralities_Consistent>  (1) 
1

>  <r_epik_Charging_Adjusted_Penalty>  (1) 
0.95188217531897845

>  <r_epik_Ionization_Penalty>  (1) 
0.49022780398244736

>  <r_epik_Ionization_Penalty_Charging>  (1) 
0.49020808109847258

>  <r_epik_Ionization_Penalty_Neutral>  (1) 
1.9722883974789891e-05

>  <r_epik_State_Penalty>  (1) 
0.46167409422050587

>  <r_glide_ring_energy>  (1) 
1.3165782718524275

>  <r_i_docking_score>  (1) 
-5.68705129461814

>  <r_i_glide_ecoul>  (1) 
-2.6839112234452118

>  <r_i_glide_eff_state_penalty>  (1) 
0.46167409422050587

>  <r_i_glide_einternal>  (1) 
19.83316808663211

>  <r_i_glide_emodel>  (1) 
-44.77843159491195

>  <r_i_glide_emodel_strain>  (1) 
5.2888321748829128

>  <r_i_glide_energy>  (1) 
-39.774497548445105

>  <r_i_glide_erotb>  (1) 
0.52401424714319955

>  <r_i_glide_esite>  (1) 
-0.090510446510392972

>  <r_i_glide_evdw>  (1) 
-37.09058632499989

>  <r_i_glide_gscore>  (1) 
-6.1487253888386455

>  <r_i_glide_gscore_strain>  (1) 
0.3222080437207282

>  <r_i_glide_hbond>  (1) 
0

>  <r_i_glide_ligand_efficiency>  (1) 
-0.17233488771570121

>  <r_i_glide_ligand_efficiency_ln>  (1) 
-1.2647707619473856

>  <r_i_glide_ligand_efficiency_sa>  (1) 
-0.55277006860408773

>  <r_i_glide_lipo>  (1) 
-2.8722215649882141

>  <r_i_glide_metal>  (1) 
-0

>  <r_i_glide_rewards>  (1) 
-1.7750996684371894

>  <r_lp_Energy>  (1) 
63.815528

>  <r_lp_tautomer_probability>  (1) 
0.99999998000000001

>  <s_epik_cmdline>  (1) 
J2VwaWtfcHl0aG9uJywgJy1waHQnLCAnMS4wJywgJy1waCcsICc3LjQnLCAnLXRuJywgJzgnLCAnLW1hJywgJzUwMCcsICctaW1hZScsICc8aW5maWxlLm1hZT4nLCAnLW9tYWUnLCAnPG91dGZpbGUubWFlPic=

>  <s_epik_input>  (1) 
W2NIXTFbY0hdW2NIXW5uYzFbQ0BIXShbQ0gzXSlbQ0gyXVtOSF1bQ0BASF0yW0NIMl1bQ0gyXU4oQyg9TylbQ0BIXTJDbClbQ0hdM1tDSDJdTihbQ0gyXTMpW0NIMl1bQ0BASF0oQyg9TylbQ0gyXTQpW0NIMl1bQ0BdKEYpKFtDSDJdNSlbQ0BAXTQ1W09IXQ==

>  <s_glide_docking_method>  (1) 
confgen

>  <s_i_glide_gridfile>  (1) 
gpcr_drd2_6luq_protein_autoprepared_prepared

>  <s_lp_Force_Field>  (1) 
S-OPLS

>  <s_lp_Variant>  (1) 
DiffSBDD_94-2

>  <s_m_source_file>  (1) 
generated_generic_title2_ligand_DiffSBDD_2026-06-23_prepared.sdf

>  <GenAI_Model>  (1) 
DiffSBDD

>  <Protein>  (1) 
generic_title2

$$$$
DiffSBDD_16
     RDKit          3D

  0  0  0  0  0  0  0  0  0  0999 V3000
M  V30 BEGIN CTAB
M  V30 COUNTS 63 67 0 0 1
M  V30 BEGIN ATOM
M  V30 1 N 10.886216 8.045482 -9.929288 0
M  V30 2 C 8.556730 4.846492 -13.753828 0
M  V30 3 C 8.023095 1.080373 -15.902705 0 CFG=1
M  V30 4 C 7.696172 0.554899 -14.471451 0
M  V30 5 N 7.964302 4.413180 -11.286845 0
M  V30 6 N 11.253550 8.789106 -8.782400 0
M  V30 7 C 8.361734 5.050923 -9.913289 0
M  V30 8 C 9.503535 6.001452 -11.695423 0
M  V30 9 C 8.627874 5.041401 -12.206827 0
M  V30 10 C 7.019605 2.826095 -13.428258 0
M  V30 11 Cl 11.707306 9.404260 -5.525974 0
M  V30 12 C 10.869457 8.050412 -6.359190 0
M  V30 13 C 10.185135 -0.469766 -17.759128 0
M  V30 14 O 9.186732 5.590131 -14.496825 0
M  V30 15 C 7.802389 0.006382 -17.010833 0 CFG=1
M  V30 16 C 10.341297 8.430532 -7.693133 0 CFG=2
M  V30 17 C 9.942657 6.179302 -6.927978 0
M  V30 18 N 7.677377 -3.220966 -19.837428 0
M  V30 19 C 10.226334 6.835661 -9.452356 0 CFG=1
M  V30 20 C 9.635690 7.158893 -8.081799 0 CFG=2
M  V30 21 N 8.064122 -3.342498 -17.585033 0 CHG=1
M  V30 22 C 8.902687 -1.058417 -17.139877 0 CFG=1
M  V30 23 N 7.755674 3.823426 -14.234276 0
M  V30 24 O 6.551033 -0.631194 -16.849174 0
M  V30 25 C 8.376730 -2.157002 -18.023918 0
M  V30 26 C 7.648360 3.669570 -15.699094 0
M  V30 27 N 7.597872 -4.136357 -18.640983 0
M  V30 28 N 10.707831 6.888156 -5.916990 0
M  V30 29 N 8.175407 -2.023765 -19.306650 0
M  V30 30 C 9.389945 6.006875 -10.424301 0
M  V30 31 C 7.861951 1.541598 -13.291269 0
M  V30 32 C 7.203309 2.317832 -16.279907 0
M  V30 33 H 10.219791 8.603965 -10.459364 0
M  V30 34 H 9.061141 1.393988 -15.938833 0
M  V30 35 H 6.666761 0.197526 -14.440001 0
M  V30 36 H 8.312023 -0.320677 -14.266112 0
M  V30 37 H 11.215765 9.787207 -8.979875 0
M  V30 38 H 7.521673 5.566247 -9.446420 0
M  V30 39 H 8.832203 4.390227 -9.200862 0
M  V30 40 H 10.172494 6.575349 -12.320292 0
M  V30 41 H 6.534961 3.135314 -12.512713 0
M  V30 42 H 6.109276 2.570059 -13.963355 0
M  V30 43 H 10.979925 -1.209753 -17.786884 0
M  V30 44 H 10.023463 -0.111837 -18.775660 0
M  V30 45 H 10.570997 0.369903 -17.185035 0
M  V30 46 H 7.753032 0.493487 -17.984951 0
M  V30 47 H 10.493092 5.305846 -7.276403 0
M  V30 48 H 9.006931 5.820966 -6.498845 0
M  V30 49 H 6.737394 -3.058879 -20.197047 0
M  V30 50 H 11.039583 6.169058 -9.185016 0
M  V30 51 H 8.575416 7.343204 -8.130463 0
M  V30 52 H 9.131837 -1.480220 -16.159837 0
M  V30 53 H 6.510368 -1.014938 -15.984767 0
M  V30 54 H 8.614709 3.883439 -16.160382 0
M  V30 55 H 6.974580 4.447306 -16.060700 0
M  V30 56 H 6.621408 -4.373707 -18.466863 0
M  V30 57 H 9.577050 9.190411 -7.574108 0
M  V30 58 H 8.354158 -1.171043 -19.819428 0
M  V30 59 H 8.914098 1.785631 -13.138420 0
M  V30 60 H 7.552585 1.021984 -12.385259 0
M  V30 61 H 7.218279 2.460603 -17.360482 0
M  V30 62 H 6.175444 2.100454 -16.052582 0
M  V30 63 H 8.112766 -3.610175 -16.603340 0
M  V30 END ATOM
M  V30 BEGIN BOND
M  V30 1 1 4 3
M  V30 2 1 6 1
M  V30 3 1 7 5
M  V30 4 1 9 2
M  V30 5 2 9 5
M  V30 6 1 9 8
M  V30 7 1 12 11
M  V30 8 2 14 2
M  V30 9 1 15 3
M  V30 10 1 16 6
M  V30 11 1 16 12
M  V30 12 1 19 1
M  V30 13 1 20 16
M  V30 14 1 20 17
M  V30 15 1 20 19
M  V30 16 1 22 13
M  V30 17 1 22 15
M  V30 18 1 23 2
M  V30 19 1 23 10
M  V30 20 1 24 15
M  V30 21 2 25 21
M  V30 22 1 25 22
M  V30 23 1 26 23
M  V30 24 1 27 18
M  V30 25 1 27 21
M  V30 26 2 28 12
M  V30 27 1 28 17
M  V30 28 1 29 18
M  V30 29 1 29 25
M  V30 30 1 30 7
M  V30 31 2 30 8
M  V30 32 1 30 19
M  V30 33 1 31 4
M  V30 34 1 31 10
M  V30 35 1 32 3
M  V30 36 1 32 26
M  V30 37 1 33 1
M  V30 38 1 3 34 CFG=1
M  V30 39 1 35 4
M  V30 40 1 36 4
M  V30 41 1 37 6
M  V30 42 1 38 7
M  V30 43 1 39 7
M  V30 44 1 40 8
M  V30 45 1 41 10
M  V30 46 1 42 10
M  V30 47 1 43 13
M  V30 48 1 44 13
M  V30 49 1 45 13
M  V30 50 1 15 46 CFG=3
M  V30 51 1 47 17
M  V30 52 1 48 17
M  V30 53 1 49 18
M  V30 54 1 19 50 CFG=1
M  V30 55 1 20 51 CFG=3
M  V30 56 1 22 52 CFG=1
M  V30 57 1 53 24
M  V30 58 1 54 26
M  V30 59 1 55 26
M  V30 60 1 56 27
M  V30 61 1 16 57 CFG=1
M  V30 62 1 58 29
M  V30 63 1 59 31
M  V30 64 1 60 31
M  V30 65 1 61 32
M  V30 66 1 62 32
M  V30 67 1 63 21
M  V30 END BOND
M  V30 END CTAB
M  END
>  <i_epik_Tot_Q>  (1) 
1

>  <i_epik_Tot_abs_Q>  (1) 
1

>  <i_i_glide_confnum>  (1) 
9

>  <i_i_glide_lignum>  (1) 
31

>  <i_i_glide_posenum>  (1) 
103

>  <i_i_glide_rotatable_bonds>  (1) 
7

>  <i_lp_mmshare_version>  (1) 
72125

>  <i_m_source_file_index>  (1) 
17

>  <i_f3d_flags>  (1) 
0

>  <num_sample>  (1) 
100

>  <b_lp_Chiralities_Consistent>  (1) 
1

>  <r_epik_Charging_Adjusted_Penalty>  (1) 
0.0018574901874323989

>  <r_epik_Ionization_Penalty>  (1) 
0.0019640421356001223

>  <r_epik_Ionization_Penalty_Charging>  (1) 
0.0018574901874323989

>  <r_epik_Ionization_Penalty_Neutral>  (1) 
0.00010655194816772327

>  <r_epik_State_Penalty>  (1) 
-0

>  <r_glide_ring_energy>  (1) 
0.16544429942790889

>  <r_i_docking_score>  (1) 
-5.6781752458319126

>  <r_i_glide_ecoul>  (1) 
-6.8489035280964741

>  <r_i_glide_eff_state_penalty>  (1) 
-0

>  <r_i_glide_einternal>  (1) 
7.7688158540469452

>  <r_i_glide_emodel>  (1) 
-62.380114253619936

>  <r_i_glide_emodel_strain>  (1) 
1.1672987947298168

>  <r_i_glide_energy>  (1) 
-48.772407519216081

>  <r_i_glide_erotb>  (1) 
0.55955952450974478

>  <r_i_glide_esite>  (1) 
-0.10696096273126415

>  <r_i_glide_evdw>  (1) 
-41.92350399111961

>  <r_i_glide_gscore>  (1) 
-5.6781752458319126

>  <r_i_glide_gscore_strain>  (1) 
0

>  <r_i_glide_hbond>  (1) 
0

>  <r_i_glide_ligand_efficiency>  (1) 
-0.17744297643224727

>  <r_i_glide_ligand_efficiency_ln>  (1) 
-1.2714982187531656

>  <r_i_glide_ligand_efficiency_sa>  (1) 
-0.56334633490583552

>  <r_i_glide_lipo>  (1) 
-1.5978152698804062

>  <r_i_glide_metal>  (1) 
-0

>  <r_i_glide_rewards>  (1) 
-1.4094478089595344

>  <r_lp_Energy>  (1) 
1.743153

>  <r_lp_tautomer_probability>  (1) 
1

>  <s_epik_Chemistry_Notes>  (1) 
This compound has an imine and may undergo hydrolysis.

>  <s_epik_cmdline>  (1) 
J2VwaWtfcHl0aG9uJywgJy1waHQnLCAnMS4wJywgJy1waCcsICc3LjQnLCAnLXRuJywgJzgnLCAnLW1hJywgJzUwMCcsICctaW1hZScsICc8aW5maWxlLm1hZT4nLCAnLW9tYWUnLCAnPG91dGZpbGUubWFlPic=

>  <s_epik_input>  (1) 
Q2xDPTFbTkhdW0NIMl1bQ0BASF0oQzEyKVtDQEhdKFtOSF1bTkhdMilDKD1bQ0hdMylbQ0gyXU49QzNDKD1PKU4oW0NIMl1bQ0gyXTQpW0NIMl1bQ0gyXVtDSDJdW0NASF00W0NASF0oW09IXSlbQ0BIXShbQ0gzXSlDNT1OW05IXVtOSF1bTkhdNQ==

>  <s_glide_docking_method>  (1) 
confgen

>  <s_i_glide_gridfile>  (1) 
gpcr_drd2_6luq_protein_autoprepared_prepared

>  <s_lp_Force_Field>  (1) 
S-OPLS

>  <s_lp_Variant>  (1) 
DiffSBDD_16-1

>  <s_m_source_file>  (1) 
generated_generic_title2_ligand_DiffSBDD_2026-06-23_prepared.sdf

>  <GenAI_Model>  (1) 
DiffSBDD

>  <Protein>  (1) 
generic_title2

$$$$
DiffSBDD_10
     RDKit          3D

  0  0  0  0  0  0  0  0  0  0999 V3000
M  V30 BEGIN CTAB
M  V30 COUNTS 55 59 0 0 1
M  V30 BEGIN ATOM
M  V30 1 S 8.976662 6.343061 -11.962724 0
M  V30 2 C 10.923090 7.590227 -10.596011 0
M  V30 3 C 8.373868 4.919699 -14.288888 0 CFG=1
M  V30 4 C 10.296347 7.277016 -7.219469 0
M  V30 5 C 8.282988 4.249137 -16.878491 0
M  V30 6 C 10.958670 7.680279 -5.894025 0
M  V30 7 O 8.435600 5.325798 -11.048699 0
M  V30 8 C 8.155483 2.790820 -16.395278 0
M  V30 9 C 11.792972 7.071015 -3.665282 0
M  V30 10 C 7.045062 1.405648 -14.472087 0
M  V30 11 C 6.796443 1.807817 -13.013529 0
M  V30 12 N 9.383068 5.493741 -13.394042 0
M  V30 13 C 7.410466 5.849605 -14.986474 0
M  V30 14 C 7.372700 2.746368 -15.081033 0 CFG=1
M  V30 15 O 8.115537 7.458599 -12.385025 0
M  V30 16 C 11.190452 6.709247 -4.883745 0
M  V30 17 N 10.496977 6.799699 -11.621754 0 CHG=-1
M  V30 18 C 8.569730 5.256290 -15.765031 0 CFG=1
M  V30 19 C 11.345336 9.022264 -5.644121 0
M  V30 20 C 10.441073 5.843249 -7.708950 0
M  V30 21 C 12.175412 8.401644 -3.437575 0
M  V30 22 O 12.075658 7.946742 -10.350326 0
M  V30 23 O 7.092824 3.209886 -12.924332 0
M  V30 24 C 10.195534 8.427629 -8.237829 0
M  V30 25 C 11.950223 9.373104 -4.425739 0
M  V30 26 C 9.771891 8.054596 -9.678125 0
M  V30 27 C 9.135978 6.304568 -7.104700 0
M  V30 28 C 8.060225 3.470407 -13.925024 0 CFG=2
M  V30 29 H 7.360929 4.551943 -17.376444 0
M  V30 30 H 9.069856 4.318111 -17.629831 0
M  V30 31 H 7.642855 2.199846 -17.154716 0
M  V30 32 H 9.139177 2.340146 -16.284230 0
M  V30 33 H 11.962997 6.322203 -2.905089 0
M  V30 34 H 6.178494 0.934202 -14.936479 0
M  V30 35 H 7.892371 0.721408 -14.542086 0
M  V30 36 H 5.775407 1.607358 -12.693444 0
M  V30 37 H 7.474726 1.235484 -12.385026 0
M  V30 38 H 10.287062 5.019515 -13.347716 0
M  V30 39 H 6.407211 5.484808 -15.193449 0
M  V30 40 H 7.466369 6.914290 -14.773530 0
M  V30 41 H 6.421285 3.242157 -15.256969 0
M  V30 42 H 10.901821 5.683499 -5.044182 0
M  V30 43 H 9.372165 5.952153 -16.003258 0
M  V30 44 H 11.178278 9.786031 -6.384907 0
M  V30 45 H 10.390579 5.609212 -8.767672 0
M  V30 46 H 11.105945 5.190238 -7.155506 0
M  V30 47 H 12.640245 8.678877 -2.502462 0
M  V30 48 H 9.469014 9.141812 -7.847720 0
M  V30 49 H 11.151210 8.946659 -8.296412 0
M  V30 50 H 12.240181 10.390227 -4.252869 0
M  V30 51 H 8.975411 7.326710 -9.604219 0
M  V30 52 H 9.317533 8.925221 -10.147428 0
M  V30 53 H 8.860587 5.990227 -6.102338 0
M  V30 54 H 8.295139 6.390205 -7.787652 0
M  V30 55 H 8.975409 2.982588 -13.585029 0
M  V30 END ATOM
M  V30 BEGIN BOND
M  V30 1 1 6 4
M  V30 2 2 7 1
M  V30 3 1 8 5
M  V30 4 1 11 10
M  V30 5 1 12 1
M  V30 6 1 3 12 CFG=1
M  V30 7 1 13 3
M  V30 8 1 14 8
M  V30 9 1 14 10
M  V30 10 2 15 1
M  V30 11 2 16 6
M  V30 12 1 16 9
M  V30 13 1 17 1
M  V30 14 1 17 2
M  V30 15 1 18 3
M  V30 16 1 18 5
M  V30 17 1 18 13
M  V30 18 1 19 6
M  V30 19 1 20 4
M  V30 20 2 21 9
M  V30 21 2 22 2
M  V30 22 1 23 11
M  V30 23 1 24 4
M  V30 24 2 25 19
M  V30 25 1 25 21
M  V30 26 1 26 2
M  V30 27 1 26 24
M  V30 28 1 27 4
M  V30 29 1 27 20
M  V30 30 1 28 3
M  V30 31 1 28 14
M  V30 32 1 28 23
M  V30 33 1 29 5
M  V30 34 1 30 5
M  V30 35 1 31 8
M  V30 36 1 32 8
M  V30 37 1 33 9
M  V30 38 1 34 10
M  V30 39 1 35 10
M  V30 40 1 36 11
M  V30 41 1 37 11
M  V30 42 1 38 12
M  V30 43 1 39 13
M  V30 44 1 40 13
M  V30 45 1 14 41 CFG=3
M  V30 46 1 42 16
M  V30 47 1 18 43 CFG=1
M  V30 48 1 44 19
M  V30 49 1 45 20
M  V30 50 1 46 20
M  V30 51 1 47 21
M  V30 52 1 48 24
M  V30 53 1 49 24
M  V30 54 1 50 25
M  V30 55 1 51 26
M  V30 56 1 52 26
M  V30 57 1 53 27
M  V30 58 1 54 27
M  V30 59 1 28 55 CFG=1
M  V30 END BOND
M  V30 END CTAB
M  END
>  <i_epik_Tot_Q>  (1) 
-1

>  <i_epik_Tot_abs_Q>  (1) 
1

>  <i_i_glide_confnum>  (1) 
71

>  <i_i_glide_lignum>  (1) 
18

>  <i_i_glide_posenum>  (1) 
228

>  <i_i_glide_rotatable_bonds>  (1) 
8

>  <i_lp_mmshare_version>  (1) 
72125

>  <i_m_source_file_index>  (1) 
11

>  <i_f3d_flags>  (1) 
0

>  <num_sample>  (1) 
100

>  <b_lp_Chiralities_Consistent>  (1) 
1

>  <r_epik_Charging_Adjusted_Penalty>  (1) 
1.3035197679919888

>  <r_epik_Ionization_Penalty>  (1) 
0.91253719082261775

>  <r_epik_Ionization_Penalty_Charging>  (1) 
0.91200715878158756

>  <r_epik_Ionization_Penalty_Neutral>  (1) 
0.00053003204103024045

>  <r_epik_State_Penalty>  (1) 
0.39151260921040132

>  <r_glide_ring_energy>  (1) 
0

>  <r_i_docking_score>  (1) 
-5.6778128824131802

>  <r_i_glide_ecoul>  (1) 
-2.7759635822201014

>  <r_i_glide_eff_state_penalty>  (1) 
0.39151260921040132

>  <r_i_glide_einternal>  (1) 
11.76436002524725

>  <r_i_glide_emodel>  (1) 
-41.81017889311579

>  <r_i_glide_emodel_strain>  (1) 
1.8132785343802027

>  <r_i_glide_energy>  (1) 
-38.866677588372063

>  <r_i_glide_erotb>  (1) 
0.84406116630868921

>  <r_i_glide_esite>  (1) 
-0.095822412685407948

>  <r_i_glide_evdw>  (1) 
-36.090714006151963

>  <r_i_glide_gscore>  (1) 
-6.069325491623581

>  <r_i_glide_gscore_strain>  (1) 
0

>  <r_i_glide_hbond>  (1) 
-0.22727742458033198

>  <r_i_glide_ligand_efficiency>  (1) 
-0.20277903151475643

>  <r_i_glide_ligand_efficiency_ln>  (1) 
-1.3106059210910974

>  <r_i_glide_ligand_efficiency_sa>  (1) 
-0.61575657082533686

>  <r_i_glide_lipo>  (1) 
-2.9716657985075492

>  <r_i_glide_metal>  (1) 
-0

>  <r_i_glide_rewards>  (1) 
-1.3976907845183684

>  <r_lp_Energy>  (1) 
22.621102

>  <s_epik_cmdline>  (1) 
J2VwaWtfcHl0aG9uJywgJy1waHQnLCAnMS4wJywgJy1waCcsICc3LjQnLCAnLXRuJywgJzgnLCAnLW1hJywgJzUwMCcsICctaW1hZScsICc8aW5maWxlLm1hZT4nLCAnLW9tYWUnLCAnPG91dGZpbGUubWFlPic=

>  <s_epik_input>  (1) 
W0NIMl0xW0NIMl1PW0NASF0yW0NASF0xW0NIMl1bQ0gyXVtDQEBIXShbQ0gyXTMpW0NAXTIzW05IXVMoPU8pKD1PKVtOSF1DKD1PKVtDSDJdW0NIMl1DNChbQ0gyXVtDSDJdNCljNVtjSF1bY0hdW2NIXVtjSF1bY0hdNQ==

>  <s_glide_docking_method>  (1) 
confgen

>  <s_i_glide_gridfile>  (1) 
gpcr_drd2_6luq_protein_autoprepared_prepared

>  <s_lp_Force_Field>  (1) 
S-OPLS

>  <s_lp_Variant>  (1) 
DiffSBDD_10-1

>  <s_m_source_file>  (1) 
generated_generic_title2_ligand_DiffSBDD_2026-06-23_prepared.sdf

>  <GenAI_Model>  (1) 
DiffSBDD

>  <Protein>  (1) 
generic_title2

$$$$
DiffSBDD_14
     RDKit          3D

  0  0  0  0  0  0  0  0  0  0999 V3000
M  V30 BEGIN CTAB
M  V30 COUNTS 47 48 0 0 1
M  V30 BEGIN ATOM
M  V30 1 N 9.617021 6.472859 -10.473774 0
M  V30 2 C 8.558742 4.046290 -13.949354 0
M  V30 3 N 9.095718 4.154077 -12.573571 0 CHG=1
M  V30 4 C 11.116586 9.198838 -5.806283 0
M  V30 5 C 8.856331 6.392575 -11.626721 0
M  V30 6 C 7.277912 4.887064 -14.010009 0
M  V30 7 C 10.905979 7.872667 -8.944443 0
M  V30 8 C 6.052490 3.682310 -12.180703 0
M  V30 9 C 11.753920 9.060979 -4.558058 0
M  V30 10 C 10.608212 8.061835 -6.467275 0
M  V30 11 C 11.882667 7.778296 -3.969303 0
M  V30 12 C 11.375626 6.647236 -4.644049 0
M  V30 13 C 10.740573 6.790776 -5.885077 0
M  V30 14 C 10.172930 7.590989 -10.226436 0
M  V30 15 O 8.705590 7.259387 -12.490512 0
M  V30 16 C 5.867395 6.161606 -12.304379 0
M  V30 17 C 9.927944 8.200406 -7.805995 0
M  V30 18 N 12.575414 6.434120 -1.985059 0
M  V30 19 N 12.510271 7.617689 -2.720771 0
M  V30 20 C 8.183298 5.017011 -11.794711 0 CFG=1
M  V30 21 C 6.822346 4.970925 -12.550042 0
M  V30 22 O 12.556752 8.782016 -1.937813 0
M  V30 23 H 8.335865 2.999218 -14.157752 0
M  V30 24 H 9.292152 4.391798 -14.679417 0
M  V30 25 H 10.028533 4.545510 -12.579124 0
M  V30 26 H 11.017509 10.175617 -6.255728 0
M  V30 27 H 6.525983 4.455571 -14.672382 0
M  V30 28 H 7.506116 5.881656 -14.396045 0
M  V30 29 H 11.617706 8.686039 -9.089444 0
M  V30 30 H 11.487042 6.984663 -8.694069 0
M  V30 31 H 6.634667 2.778316 -12.360661 0
M  V30 32 H 5.763213 3.681775 -11.128379 0
M  V30 33 H 5.140237 3.590265 -12.772280 0
M  V30 34 H 12.140801 9.934236 -4.055666 0
M  V30 35 H 11.471320 5.665884 -4.204389 0
M  V30 36 H 10.352354 5.921878 -6.394591 0
M  V30 37 H 10.148079 8.426249 -10.931695 0
M  V30 38 H 6.279033 7.129743 -12.582151 0
M  V30 39 H 4.975433 6.044337 -12.912329 0
M  V30 40 H 5.560459 6.226269 -11.258901 0
M  V30 41 H 9.082805 7.508139 -7.812751 0
M  V30 42 H 9.490964 9.189663 -7.922781 0
M  V30 43 H 12.539201 6.654379 -0.992845 0
M  V30 44 H 11.772446 5.849817 -2.212495 0
M  V30 45 H 8.056306 4.587379 -10.798521 0
M  V30 46 H 13.430805 9.135483 -2.024418 0
M  V30 47 H 9.113936 3.234495 -12.154225 0
M  V30 END ATOM
M  V30 BEGIN BOND
M  V30 1 1 3 2
M  V30 2 1 5 1
M  V30 3 1 6 2
M  V30 4 2 9 4
M  V30 5 1 10 4
M  V30 6 1 11 9
M  V30 7 2 12 11
M  V30 8 2 13 10
M  V30 9 1 13 12
M  V30 10 2 14 1
M  V30 11 1 14 7
M  V30 12 2 15 5
M  V30 13 1 17 7
M  V30 14 1 17 10
M  V30 15 1 19 11
M  V30 16 1 19 18
M  V30 17 1 20 3
M  V30 18 1 20 5
M  V30 19 1 21 6
M  V30 20 1 21 8
M  V30 21 1 21 16
M  V30 22 1 21 20
M  V30 23 1 22 19
M  V30 24 1 23 2
M  V30 25 1 24 2
M  V30 26 1 25 3
M  V30 27 1 26 4
M  V30 28 1 27 6
M  V30 29 1 28 6
M  V30 30 1 29 7
M  V30 31 1 30 7
M  V30 32 1 31 8
M  V30 33 1 32 8
M  V30 34 1 33 8
M  V30 35 1 34 9
M  V30 36 1 35 12
M  V30 37 1 36 13
M  V30 38 1 37 14
M  V30 39 1 38 16
M  V30 40 1 39 16
M  V30 41 1 40 16
M  V30 42 1 41 17
M  V30 43 1 42 17
M  V30 44 1 43 18
M  V30 45 1 44 18
M  V30 46 1 20 45 CFG=1
M  V30 47 1 46 22
M  V30 48 1 47 3
M  V30 END BOND
M  V30 END CTAB
M  END
>  <i_epik_Tot_Q>  (1) 
1

>  <i_epik_Tot_abs_Q>  (1) 
1

>  <i_i_glide_confnum>  (1) 
361

>  <i_i_glide_lignum>  (1) 
28

>  <i_i_glide_posenum>  (1) 
224

>  <i_i_glide_rotatable_bonds>  (1) 
7

>  <i_lp_mmshare_version>  (1) 
72125

>  <i_m_source_file_index>  (1) 
15

>  <i_f3d_flags>  (1) 
0

>  <num_sample>  (1) 
100

>  <b_lp_Chiralities_Consistent>  (1) 
1

>  <r_epik_Charging_Adjusted_Penalty>  (1) 
1.3617227199011863

>  <r_epik_Ionization_Penalty>  (1) 
0.68407859148239814

>  <r_epik_Ionization_Penalty_Charging>  (1) 
0.68086135995059327

>  <r_epik_Ionization_Penalty_Neutral>  (1) 
0.0032172315318048095

>  <r_epik_State_Penalty>  (1) 
0.68086135995059305

>  <r_glide_ring_energy>  (1) 
0

>  <r_i_docking_score>  (1) 
-5.6765394518091288

>  <r_i_glide_ecoul>  (1) 
-5.2239433162288567

>  <r_i_glide_eff_state_penalty>  (1) 
0.68086135995059305

>  <r_i_glide_einternal>  (1) 
1.8315354333088383

>  <r_i_glide_emodel>  (1) 
-62.270864225753854

>  <r_i_glide_emodel_strain>  (1) 
0.18235725453471829

>  <r_i_glide_energy>  (1) 
-42.932621950441174

>  <r_i_glide_erotb>  (1) 
1.1872890279772172

>  <r_i_glide_esite>  (1) 
-0.10450342775585418

>  <r_i_glide_evdw>  (1) 
-37.708678634212319

>  <r_i_glide_gscore>  (1) 
-6.3574008117597218

>  <r_i_glide_gscore_strain>  (1) 
0

>  <r_i_glide_hbond>  (1) 
-0.10269339781954809

>  <r_i_glide_ligand_efficiency>  (1) 
-0.2580245205367786

>  <r_i_glide_ligand_efficiency_ln>  (1) 
-1.3875532988295651

>  <r_i_glide_ligand_efficiency_sa>  (1) 
-0.72299485481755232

>  <r_i_glide_lipo>  (1) 
-2.1628931941360148

>  <r_i_glide_metal>  (1) 
-0

>  <r_i_glide_rewards>  (1) 
-2.5055743908805765

>  <r_lp_Energy>  (1) 
27.896162

>  <s_epik_Chemistry_Notes>  (1) 
This compound has an imine and may undergo hydrolysis. This compound has a N-S or N-O group and may undergo hydrolysis at high or low pH.

>  <s_epik_cmdline>  (1) 
J2VwaWtfcHl0aG9uJywgJy1waHQnLCAnMS4wJywgJy1waCcsICc3LjQnLCAnLXRuJywgJzgnLCAnLW1hJywgJzUwMCcsICctaW1hZScsICc8aW5maWxlLm1hZT4nLCAnLW9tYWUnLCAnPG91dGZpbGUubWFlPic=

>  <s_epik_input>  (1) 
W0NIM11DMShbQ0gzXSlbQ0gyXVtDSDJdW05IXVtDQEhdMUMoPU8pL049W0NIXS9bQ0gyXVtDSDJdYzJbY0hdW2NIXWMoW2NIXVtjSF0yKU4oW05IMl0pW09IXQ==

>  <s_glide_docking_method>  (1) 
confgen

>  <s_i_glide_gridfile>  (1) 
gpcr_drd2_6luq_protein_autoprepared_prepared

>  <s_lp_Force_Field>  (1) 
S-OPLS

>  <s_lp_Variant>  (1) 
DiffSBDD_14-3

>  <s_m_source_file>  (1) 
generated_generic_title2_ligand_DiffSBDD_2026-06-23_prepared.sdf

>  <GenAI_Model>  (1) 
DiffSBDD

>  <Protein>  (1) 
generic_title2

$$$$
DiffSBDD_8
     RDKit          3D

  0  0  0  0  0  0  0  0  0  0999 V3000
M  V30 BEGIN CTAB
M  V30 COUNTS 62 64 0 0 1
M  V30 BEGIN ATOM
M  V30 1 C 8.296030 4.939374 -11.638399 0
M  V30 2 O 11.134498 6.790331 -8.084298 0
M  V30 3 C 10.292591 4.256306 -19.246921 0
M  V30 4 N 9.775370 8.255638 -9.073188 0
M  V30 5 C 6.370245 6.004456 -17.503881 0 CFG=2
M  V30 6 C 9.075663 4.946438 -16.789370 0
M  V30 7 N 8.175410 5.590228 -8.477929 0 CHG=1
M  V30 8 C 4.750429 5.591300 -20.597117 0
M  V30 9 C 5.233854 8.058961 -20.219325 0
M  V30 10 O 4.751143 7.585557 -17.732173 0
M  V30 11 C 8.891570 4.340360 -19.160424 0
M  V30 12 C 5.501396 4.280763 -20.859311 0
M  V30 13 O 6.898295 4.772924 -17.890393 0
M  V30 14 S 9.375078 4.618523 -14.052822 0
M  V30 15 C 6.041911 5.917342 -16.000104 0
M  V30 16 C 8.431687 5.315336 -15.438134 0 CFG=2
M  V30 17 N 8.797063 5.641838 -12.816297 0 CFG=2 CHG=1
M  V30 18 F 10.878046 3.922519 -20.420738 0
M  V30 19 C 3.375586 7.400673 -17.453987 0
M  V30 20 C 9.833415 6.255147 -11.993283 0
M  V30 21 C 6.957045 4.932390 -15.278090 0
M  V30 22 C 8.870485 6.084136 -10.811429 0 CFG=2
M  V30 23 C 5.539168 6.617955 -19.745764 0 CFG=1
M  V30 24 N 5.237092 6.361299 -18.324132 0
M  V30 25 C 10.162319 7.011381 -8.795059 0
M  V30 26 C 11.086649 4.521027 -18.118374 0
M  V30 27 C 10.485414 4.865506 -16.894801 0
M  V30 28 C 8.272538 4.689157 -17.943346 0
M  V30 29 C 9.332048 5.846478 -9.355723 0 CFG=1
M  V30 30 H 7.208971 4.849704 -11.606337 0
M  V30 31 H 8.790969 3.981281 -11.456171 0
M  V30 32 H 10.324808 9.037452 -8.748753 0
M  V30 33 H 8.889558 8.414486 -9.551025 0
M  V30 34 H 7.134848 6.769505 -17.655636 0
M  V30 35 H 8.494878 5.459880 -7.529411 0
M  V30 36 H 7.572762 6.418999 -8.503272 0
M  V30 37 H 3.787255 5.363223 -20.140028 0
M  V30 38 H 4.517083 6.026392 -21.569922 0
M  V30 39 H 5.528981 8.193566 -21.260165 0
M  V30 40 H 4.170737 8.291583 -20.152742 0
M  V30 41 H 5.776114 8.803679 -19.636851 0
M  V30 42 H 8.288830 4.139631 -20.031776 0
M  V30 43 H 4.906810 3.610424 -21.480501 0
M  V30 44 H 6.438294 4.464551 -21.384745 0
M  V30 45 H 5.724173 3.752603 -19.933187 0
M  V30 46 H 6.107851 6.916782 -15.568203 0
M  V30 47 H 5.012417 5.590227 -15.873350 0
M  V30 48 H 8.520152 6.390237 -15.341343 0
M  V30 49 H 2.995880 8.228251 -16.855407 0
M  V30 50 H 2.815534 7.381351 -18.384438 0
M  V30 51 H 3.175868 6.479457 -16.905782 0
M  V30 52 H 10.738320 5.646635 -11.985020 0
M  V30 53 H 10.049270 7.288836 -12.266227 0
M  V30 54 H 6.662511 4.960422 -14.230023 0
M  V30 55 H 6.785752 3.900228 -15.587695 0
M  V30 56 H 8.175434 6.919935 -10.851914 0
M  V30 57 H 6.604483 6.456926 -19.918296 0
M  V30 58 H 12.162440 4.458469 -18.190682 0
M  V30 59 H 11.107705 5.065976 -16.035498 0
M  V30 60 H 9.951669 4.950402 -9.324871 0
M  V30 61 H 8.128905 6.339501 -13.113756 0
M  V30 62 H 7.647599 4.785846 -8.783126 0
M  V30 END ATOM
M  V30 BEGIN BOND
M  V30 1 2 11 3
M  V30 2 1 12 8
M  V30 3 1 13 5
M  V30 4 1 15 5
M  V30 5 1 16 6
M  V30 6 1 16 14
M  V30 7 1 17 1
M  V30 8 1 17 14
M  V30 9 1 18 3
M  V30 10 1 19 10
M  V30 11 1 20 17
M  V30 12 1 21 15
M  V30 13 1 21 16
M  V30 14 1 22 1
M  V30 15 1 22 20
M  V30 16 1 23 8
M  V30 17 1 23 9
M  V30 18 1 24 5
M  V30 19 1 24 10
M  V30 20 1 24 23
M  V30 21 2 25 2
M  V30 22 1 25 4
M  V30 23 1 26 3
M  V30 24 1 27 6
M  V30 25 2 27 26
M  V30 26 2 28 6
M  V30 27 1 28 11
M  V30 28 1 28 13
M  V30 29 1 29 7
M  V30 30 1 29 22
M  V30 31 1 29 25
M  V30 32 1 30 1
M  V30 33 1 31 1
M  V30 34 1 32 4
M  V30 35 1 33 4
M  V30 36 1 5 34 CFG=1
M  V30 37 1 35 7
M  V30 38 1 36 7
M  V30 39 1 37 8
M  V30 40 1 38 8
M  V30 41 1 39 9
M  V30 42 1 40 9
M  V30 43 1 41 9
M  V30 44 1 42 11
M  V30 45 1 43 12
M  V30 46 1 44 12
M  V30 47 1 45 12
M  V30 48 1 46 15
M  V30 49 1 47 15
M  V30 50 1 16 48 CFG=1
M  V30 51 1 49 19
M  V30 52 1 50 19
M  V30 53 1 51 19
M  V30 54 1 52 20
M  V30 55 1 53 20
M  V30 56 1 54 21
M  V30 57 1 55 21
M  V30 58 1 22 56 CFG=1
M  V30 59 1 23 57 CFG=1
M  V30 60 1 58 26
M  V30 61 1 59 27
M  V30 62 1 29 60 CFG=3
M  V30 63 1 17 61 CFG=3
M  V30 64 1 62 7
M  V30 END BOND
M  V30 END CTAB
M  END
>  <i_epik_Tot_Q>  (1) 
2

>  <i_epik_Tot_abs_Q>  (1) 
2

>  <i_i_glide_confnum>  (1) 
29

>  <i_i_glide_lignum>  (1) 
14

>  <i_i_glide_posenum>  (1) 
220

>  <i_i_glide_rotatable_bonds>  (1) 
8

>  <i_lp_mmshare_version>  (1) 
72125

>  <i_m_source_file_index>  (1) 
9

>  <i_f3d_flags>  (1) 
0

>  <num_sample>  (1) 
100

>  <b_lp_Chiralities_Consistent>  (1) 
1

>  <r_epik_Charging_Adjusted_Penalty>  (1) 
1.8967099088143093

>  <r_epik_Ionization_Penalty>  (1) 
0.97230814562840162

>  <r_epik_Ionization_Penalty_Charging>  (1) 
0.97206898566559774

>  <r_epik_Ionization_Penalty_Neutral>  (1) 
0.00023915996280393024

>  <r_epik_State_Penalty>  (1) 
0.9246409231487116

>  <r_glide_ring_energy>  (1) 
0

>  <r_i_docking_score>  (1) 
-5.67411510783427

>  <r_i_glide_ecoul>  (1) 
-9.6079030816795878

>  <r_i_glide_eff_state_penalty>  (1) 
0.9246409231487116

>  <r_i_glide_einternal>  (1) 
3.766943508708728

>  <r_i_glide_emodel>  (1) 
-54.74133574971934

>  <r_i_glide_emodel_strain>  (1) 
3.7478578035246812

>  <r_i_glide_energy>  (1) 
-36.380282080330602

>  <r_i_glide_erotb>  (1) 
0.37853286695913396

>  <r_i_glide_esite>  (1) 
-0.25794020823925923

>  <r_i_glide_evdw>  (1) 
-26.772378998651018

>  <r_i_glide_gscore>  (1) 
-6.5987560309829814

>  <r_i_glide_gscore_strain>  (1) 
0

>  <r_i_glide_hbond>  (1) 
-0.48125809482084769

>  <r_i_glide_ligand_efficiency>  (1) 
-0.19565914164945758

>  <r_i_glide_ligand_efficiency_ln>  (1) 
-1.2992284765494906

>  <r_i_glide_ligand_efficiency_sa>  (1) 
-0.60112687298887912

>  <r_i_glide_lipo>  (1) 
-1.5316697738933502

>  <r_i_glide_metal>  (1) 
-0

>  <r_i_glide_rewards>  (1) 
-1.9266164088041697

>  <r_lp_Energy>  (1) 
57.067200999999997

>  <r_lp_tautomer_probability>  (1) 
1

>  <s_epik_Chemistry_Notes>  (1) 
This compound contains an acetal/aminal-like group ( X-CH(R)-Y where X, Y are N, S, or O) that may be acid/base labile, releasing an aldehyde. This compound has a N-S or N-O group and may undergo hydrolysis at high or low pH.

>  <s_epik_cmdline>  (1) 
J2VwaWtfcHl0aG9uJywgJy1waHQnLCAnMS4wJywgJy1waCcsICc3LjQnLCAnLXRuJywgJzgnLCAnLW1hJywgJzUwMCcsICctaW1hZScsICc8aW5maWxlLm1hZT4nLCAnLW9tYWUnLCAnPG91dGZpbGUubWFlPic=

>  <s_epik_input>  (1) 
Tz1DKFtOSDJdKVtDQEBIXShbTkgyXSlbQ0hdKFtDSDJdMSlbQ0gyXU4xU1tDQEBIXTJbQ0gyXVtDSDJdW0NASF0oTihPW0NIM10pW0NASF0oW0NIM10pW0NIMl1bQ0gzXSlPYyhjMjMpW2NIXWMoRilbY0hdW2NIXTM=

>  <s_glide_docking_method>  (1) 
confgen

>  <s_i_glide_gridfile>  (1) 
gpcr_drd2_6luq_protein_autoprepared_prepared

>  <s_lp_Force_Field>  (1) 
S-OPLS

>  <s_lp_Variant>  (1) 
DiffSBDD_8-4

>  <s_m_source_file>  (1) 
generated_generic_title2_ligand_DiffSBDD_2026-06-23_prepared.sdf

>  <GenAI_Model>  (1) 
DiffSBDD

>  <Protein>  (1) 
generic_title2

$$$$
DiffSBDD_8
     RDKit          3D

  0  0  0  0  0  0  0  0  0  0999 V3000
M  V30 BEGIN CTAB
M  V30 COUNTS 62 64 0 0 1
M  V30 BEGIN ATOM
M  V30 1 C 8.175426 6.390208 -11.294079 0
M  V30 2 O 11.308301 7.190351 -8.113885 0
M  V30 3 C 6.351653 0.200304 -15.813425 0
M  V30 4 N 9.375410 8.258930 -8.433094 0
M  V30 5 C 9.121114 3.756076 -17.184241 0 CFG=2
M  V30 6 C 7.385871 2.713576 -15.019840 0
M  V30 7 N 8.213137 5.590228 -8.382906 0 CHG=1
M  V30 8 C 10.027937 1.096033 -18.165081 0
M  V30 9 C 11.630957 2.365662 -19.694664 0
M  V30 10 O 10.850360 4.720989 -18.386748 0
M  V30 11 C 6.848486 1.089157 -16.781919 0
M  V30 12 C 10.859881 -0.190945 -18.217647 0
M  V30 13 O 7.863326 3.182547 -17.380692 0
M  V30 14 S 7.106450 4.668661 -13.045527 0
M  V30 15 C 8.847332 5.190320 -16.694528 0
M  V30 16 C 7.917364 4.097237 -14.574659 0 CFG=2
M  V30 17 N 8.477499 5.422497 -12.341995 0 CFG=2 CHG=1
M  V30 18 F 5.843258 -0.994299 -16.193322 0
M  V30 19 C 10.559873 5.495389 -19.544556 0
M  V30 20 C 9.193038 4.606366 -11.361857 0
M  V30 21 C 7.747040 5.202340 -15.630922 0
M  V30 22 C 9.421107 5.885986 -10.561904 0 CFG=2
M  V30 23 C 10.823898 2.407474 -18.378544 0 CFG=1
M  V30 24 N 9.944686 3.592886 -18.375423 0
M  V30 25 C 10.140096 7.169865 -8.486736 0
M  V30 26 C 6.382842 0.548704 -14.452474 0
M  V30 27 C 6.896712 1.797284 -14.052189 0
M  V30 28 C 7.375413 2.339915 -16.401516 0
M  V30 29 C 9.517558 5.868374 -9.017042 0 CFG=1
M  V30 30 H 8.216015 7.431266 -11.616826 0
M  V30 31 H 7.234654 6.156114 -10.791938 0
M  V30 32 H 9.750843 9.118228 -8.061319 0
M  V30 33 H 8.410247 8.227307 -8.785038 0
M  V30 34 H 9.635271 3.224701 -16.385022 0
M  V30 35 H 8.321401 5.604175 -7.378705 0
M  V30 36 H 7.558240 6.335469 -8.623297 0
M  V30 37 H 9.579115 1.107883 -17.176080 0
M  V30 38 H 9.209742 1.029660 -18.883340 0
M  V30 39 H 12.315621 1.519280 -19.721935 0
M  V30 40 H 10.973239 2.291210 -20.561113 0
M  V30 41 H 12.254899 3.249885 -19.820442 0
M  V30 42 H 6.828306 0.810357 -17.825016 0
M  V30 43 H 10.263285 -1.044196 -17.893163 0
M  V30 44 H 11.198478 -0.402693 -19.230968 0
M  V30 45 H 11.732599 -0.130236 -17.567104 0
M  V30 46 H 9.773236 5.607778 -16.296576 0
M  V30 47 H 8.532958 5.808793 -17.534200 0
M  V30 48 H 8.975430 3.988103 -14.340744 0
M  V30 49 H 11.218605 6.363303 -19.572990 0
M  V30 50 H 10.718314 4.929683 -20.463079 0
M  V30 51 H 9.532701 5.860177 -19.548408 0
M  V30 52 H 8.556731 3.886329 -10.847886 0
M  V30 53 H 10.095052 4.141322 -11.761115 0
M  V30 54 H 7.778507 6.185670 -15.160234 0
M  V30 55 H 6.757837 5.135383 -16.086929 0
M  V30 56 H 10.294320 6.390366 -10.986581 0
M  V30 57 H 11.529861 2.510146 -17.552601 0
M  V30 58 H 6.004529 -0.142550 -13.712081 0
M  V30 59 H 6.908011 2.052257 -13.004512 0
M  V30 60 H 10.175437 5.049909 -8.724828 0
M  V30 61 H 9.130296 5.821018 -13.003109 0
M  V30 62 H 7.837213 4.701486 -8.676404 0
M  V30 END ATOM
M  V30 BEGIN BOND
M  V30 1 2 11 3
M  V30 2 1 12 8
M  V30 3 1 13 5
M  V30 4 1 15 5
M  V30 5 1 16 6
M  V30 6 1 16 14
M  V30 7 1 17 1
M  V30 8 1 17 14
M  V30 9 1 18 3
M  V30 10 1 19 10
M  V30 11 1 20 17
M  V30 12 1 21 15
M  V30 13 1 21 16
M  V30 14 1 22 1
M  V30 15 1 22 20
M  V30 16 1 23 8
M  V30 17 1 23 9
M  V30 18 1 24 5
M  V30 19 1 24 10
M  V30 20 1 24 23
M  V30 21 2 25 2
M  V30 22 1 25 4
M  V30 23 1 26 3
M  V30 24 1 27 6
M  V30 25 2 27 26
M  V30 26 2 28 6
M  V30 27 1 28 11
M  V30 28 1 28 13
M  V30 29 1 29 7
M  V30 30 1 29 22
M  V30 31 1 29 25
M  V30 32 1 30 1
M  V30 33 1 31 1
M  V30 34 1 32 4
M  V30 35 1 33 4
M  V30 36 1 5 34 CFG=1
M  V30 37 1 35 7
M  V30 38 1 36 7
M  V30 39 1 37 8
M  V30 40 1 38 8
M  V30 41 1 39 9
M  V30 42 1 40 9
M  V30 43 1 41 9
M  V30 44 1 42 11
M  V30 45 1 43 12
M  V30 46 1 44 12
M  V30 47 1 45 12
M  V30 48 1 46 15
M  V30 49 1 47 15
M  V30 50 1 16 48 CFG=1
M  V30 51 1 49 19
M  V30 52 1 50 19
M  V30 53 1 51 19
M  V30 54 1 52 20
M  V30 55 1 53 20
M  V30 56 1 54 21
M  V30 57 1 55 21
M  V30 58 1 22 56 CFG=3
M  V30 59 1 23 57 CFG=1
M  V30 60 1 58 26
M  V30 61 1 59 27
M  V30 62 1 29 60 CFG=3
M  V30 63 1 17 61 CFG=3
M  V30 64 1 62 7
M  V30 END BOND
M  V30 END CTAB
M  END
>  <i_epik_Tot_Q>  (1) 
2

>  <i_epik_Tot_abs_Q>  (1) 
2

>  <i_i_glide_confnum>  (1) 
68

>  <i_i_glide_lignum>  (1) 
14

>  <i_i_glide_posenum>  (1) 
221

>  <i_i_glide_rotatable_bonds>  (1) 
8

>  <i_lp_mmshare_version>  (1) 
72125

>  <i_m_source_file_index>  (1) 
9

>  <i_f3d_flags>  (1) 
0

>  <num_sample>  (1) 
100

>  <b_lp_Chiralities_Consistent>  (1) 
1

>  <r_epik_Charging_Adjusted_Penalty>  (1) 
1.8967099088143093

>  <r_epik_Ionization_Penalty>  (1) 
0.97230814562840162

>  <r_epik_Ionization_Penalty_Charging>  (1) 
0.97206898566559774

>  <r_epik_Ionization_Penalty_Neutral>  (1) 
0.00023915996280393024

>  <r_epik_State_Penalty>  (1) 
0.9246409231487116

>  <r_glide_ring_energy>  (1) 
0

>  <r_i_docking_score>  (1) 
-5.6739815697800404

>  <r_i_glide_ecoul>  (1) 
-12.316641620817995

>  <r_i_glide_eff_state_penalty>  (1) 
0.9246409231487116

>  <r_i_glide_einternal>  (1) 
8.3535258572289628

>  <r_i_glide_emodel>  (1) 
-57.787314211789038

>  <r_i_glide_emodel_strain>  (1) 
0.88402188830131934

>  <r_i_glide_energy>  (1) 
-38.856201331763906

>  <r_i_glide_erotb>  (1) 
0.37853286695913396

>  <r_i_glide_esite>  (1) 
-0.25892831893994439

>  <r_i_glide_evdw>  (1) 
-26.539559710945912

>  <r_i_glide_gscore>  (1) 
-6.5986224929287518

>  <r_i_glide_gscore_strain>  (1) 
0

>  <r_i_glide_hbond>  (1) 
-0.47246052071776645

>  <r_i_glide_ligand_efficiency>  (1) 
-0.19565453688896692

>  <r_i_glide_ligand_efficiency_ln>  (1) 
-1.2991978997213047

>  <r_i_glide_ligand_efficiency_sa>  (1) 
-0.60111272570574548

>  <r_i_glide_lipo>  (1) 
-1.5946331753399907

>  <r_i_glide_metal>  (1) 
-0

>  <r_i_glide_rewards>  (1) 
-1.4766591162201892

>  <r_lp_Energy>  (1) 
57.067200999999997

>  <r_lp_tautomer_probability>  (1) 
1

>  <s_epik_Chemistry_Notes>  (1) 
This compound contains an acetal/aminal-like group ( X-CH(R)-Y where X, Y are N, S, or O) that may be acid/base labile, releasing an aldehyde. This compound has a N-S or N-O group and may undergo hydrolysis at high or low pH.

>  <s_epik_cmdline>  (1) 
J2VwaWtfcHl0aG9uJywgJy1waHQnLCAnMS4wJywgJy1waCcsICc3LjQnLCAnLXRuJywgJzgnLCAnLW1hJywgJzUwMCcsICctaW1hZScsICc8aW5maWxlLm1hZT4nLCAnLW9tYWUnLCAnPG91dGZpbGUubWFlPic=

>  <s_epik_input>  (1) 
Tz1DKFtOSDJdKVtDQEBIXShbTkgyXSlbQ0hdKFtDSDJdMSlbQ0gyXU4xU1tDQEBIXTJbQ0gyXVtDSDJdW0NASF0oTihPW0NIM10pW0NASF0oW0NIM10pW0NIMl1bQ0gzXSlPYyhjMjMpW2NIXWMoRilbY0hdW2NIXTM=

>  <s_glide_docking_method>  (1) 
confgen

>  <s_i_glide_gridfile>  (1) 
gpcr_drd2_6luq_protein_autoprepared_prepared

>  <s_lp_Force_Field>  (1) 
S-OPLS

>  <s_lp_Variant>  (1) 
DiffSBDD_8-4

>  <s_m_source_file>  (1) 
generated_generic_title2_ligand_DiffSBDD_2026-06-23_prepared.sdf

>  <GenAI_Model>  (1) 
DiffSBDD

>  <Protein>  (1) 
generic_title2

$$$$
DiffSBDD_70
     RDKit          3D

  0  0  0  0  0  0  0  0  0  0999 V3000
M  V30 BEGIN CTAB
M  V30 COUNTS 74 78 0 0 1
M  V30 BEGIN ATOM
M  V30 1 C 7.064683 0.993570 -15.474466 0
M  V30 2 C 9.935531 6.781779 -8.306617 0
M  V30 3 C 9.364718 3.088197 -17.462300 0
M  V30 4 C 9.286760 5.583839 -9.011416 0
M  V30 5 C 17.627197 6.879658 -17.664963 0
M  V30 6 N 16.843967 4.790233 -16.742502 0
M  V30 7 C 6.029038 4.576076 -10.785038 0
M  V30 8 C 8.484409 4.989573 -11.293900 0 CFG=1
M  V30 9 C 9.740646 4.954239 -12.137007 0
M  V30 10 C 7.130656 2.174973 -18.088216 0
M  V30 11 C 7.080054 4.812267 -11.889847 0 CFG=2
M  V30 12 O 12.902653 5.932250 -17.163655 0
M  V30 13 C 9.355735 6.231543 -11.435123 0 CFG=2
M  V30 14 C 7.219986 5.738811 -14.331284 0
M  V30 15 C 6.634296 5.869234 -12.921205 0
M  V30 16 C 7.991149 2.730800 -16.928911 0 CFG=1
M  V30 17 C 16.003797 8.560256 -18.373214 0
M  V30 18 C 11.841654 5.066554 -16.754476 0
M  V30 19 O 8.175894 1.790065 -15.864258 0
M  V30 20 Cl 18.624765 9.198120 -18.676501 0
M  V30 21 C 7.376250 4.302597 -14.895070 0
M  V30 22 C 8.532495 5.241102 -17.050882 0 CFG=2
M  V30 23 C 17.337853 8.148357 -18.210532 0
M  V30 24 C 5.775505 6.858512 -12.608967 0
M  V30 25 C 7.877374 5.997481 -18.223871 0
M  V30 26 N 9.592585 4.384914 -17.503582 0
M  V30 27 C 14.957921 7.708258 -17.987096 0
M  V30 28 C 10.859424 4.978687 -17.926585 0
M  V30 29 C 16.585618 6.009109 -17.271090 0
M  V30 30 N 14.480789 4.362110 -16.496352 0
M  V30 31 C 15.775392 4.058387 -16.385035 0
M  V30 32 N 8.575376 5.990230 -10.241451 0 CFG=2 CHG=1
M  V30 33 O 10.173688 2.225850 -17.807766 0
M  V30 34 C 7.546222 4.177905 -16.435576 0 CFG=1
M  V30 35 C 14.230312 5.573363 -17.032337 0
M  V30 36 C 15.251429 6.442644 -17.437707 0
M  V30 37 H 7.306596 0.462058 -14.554136 0
M  V30 38 H 6.175432 1.590102 -15.289516 0
M  V30 39 H 6.829126 0.242663 -16.229272 0
M  V30 40 H 10.415412 6.468892 -7.378898 0
M  V30 41 H 10.697726 7.246374 -8.932809 0
M  V30 42 H 9.194484 7.541964 -8.055413 0
M  V30 43 H 8.558504 5.120186 -8.343880 0
M  V30 44 H 10.038325 4.823311 -9.224015 0
M  V30 45 H 18.654677 6.571345 -17.544446 0
M  V30 46 H 5.051512 4.358860 -11.216301 0
M  V30 47 H 6.295031 3.727981 -10.154336 0
M  V30 48 H 5.917485 5.439032 -10.128234 0
M  V30 49 H 10.575414 4.390174 -11.740658 0
M  V30 50 H 9.683525 4.955668 -13.219933 0
M  V30 51 H 7.121130 2.852971 -18.942630 0
M  V30 52 H 7.516004 1.216644 -18.438209 0
M  V30 53 H 6.093555 2.024975 -17.789219 0
M  V30 54 H 7.109069 3.854328 -12.404058 0
M  V30 55 H 8.934909 7.049393 -12.016120 0
M  V30 56 H 6.587438 6.313311 -15.009325 0
M  V30 57 H 8.179129 6.251216 -14.323038 0
M  V30 58 H 15.784007 9.532328 -18.791484 0
M  V30 59 H 11.361856 5.532677 -15.893316 0
M  V30 60 H 12.111716 4.057762 -16.442223 0
M  V30 61 H 8.219781 3.818209 -14.407430 0
M  V30 62 H 6.492807 3.730172 -14.615206 0
M  V30 63 H 8.932169 5.939610 -16.319877 0
M  V30 64 H 5.363542 6.953848 -11.615933 0
M  V30 65 H 5.475560 7.587627 -13.348650 0
M  V30 66 H 7.010632 6.564569 -17.883373 0
M  V30 67 H 8.562067 6.709453 -18.683144 0
M  V30 68 H 7.538663 5.315666 -19.004436 0
M  V30 69 H 13.931118 8.025139 -18.107709 0
M  V30 70 H 11.299672 4.412524 -18.748945 0
M  V30 71 H 10.681401 5.979960 -18.318521 0
M  V30 72 H 15.992909 3.091990 -15.955431 0
M  V30 73 H 6.575409 4.390592 -16.864111 0
M  V30 74 H 7.791752 6.638694 -10.119799 0
M  V30 END ATOM
M  V30 BEGIN BOND
M  V30 1 1 4 2
M  V30 2 1 8 9 CFG=1
M  V30 3 1 11 7
M  V30 4 1 11 8
M  V30 5 1 13 8
M  V30 6 1 13 9
M  V30 7 1 15 11
M  V30 8 1 15 14
M  V30 9 1 16 3
M  V30 10 1 16 10
M  V30 11 1 18 12
M  V30 12 1 19 1
M  V30 13 1 16 19 CFG=1
M  V30 14 1 21 14
M  V30 15 2 23 5
M  V30 16 1 23 17
M  V30 17 1 23 20
M  V30 18 2 24 15
M  V30 19 1 25 22
M  V30 20 1 26 3
M  V30 21 1 26 22
M  V30 22 2 27 17
M  V30 23 1 28 18
M  V30 24 1 28 26
M  V30 25 1 29 5
M  V30 26 2 29 6
M  V30 27 1 31 6
M  V30 28 2 31 30
M  V30 29 1 32 4
M  V30 30 1 32 8
M  V30 31 1 32 13
M  V30 32 2 33 3
M  V30 33 1 34 16
M  V30 34 1 34 21
M  V30 35 1 34 22
M  V30 36 1 35 12
M  V30 37 1 35 30
M  V30 38 1 36 27
M  V30 39 1 36 29
M  V30 40 2 36 35
M  V30 41 1 37 1
M  V30 42 1 38 1
M  V30 43 1 39 1
M  V30 44 1 40 2
M  V30 45 1 41 2
M  V30 46 1 42 2
M  V30 47 1 43 4
M  V30 48 1 44 4
M  V30 49 1 45 5
M  V30 50 1 46 7
M  V30 51 1 47 7
M  V30 52 1 48 7
M  V30 53 1 49 9
M  V30 54 1 50 9
M  V30 55 1 51 10
M  V30 56 1 52 10
M  V30 57 1 53 10
M  V30 58 1 11 54 CFG=3
M  V30 59 1 13 55 CFG=3
M  V30 60 1 56 14
M  V30 61 1 57 14
M  V30 62 1 58 17
M  V30 63 1 59 18
M  V30 64 1 60 18
M  V30 65 1 61 21
M  V30 66 1 62 21
M  V30 67 1 22 63 CFG=1
M  V30 68 1 64 24
M  V30 69 1 65 24
M  V30 70 1 66 25
M  V30 71 1 67 25
M  V30 72 1 68 25
M  V30 73 1 69 27
M  V30 74 1 70 28
M  V30 75 1 71 28
M  V30 76 1 72 31
M  V30 77 1 34 73 CFG=3
M  V30 78 1 32 74 CFG=1
M  V30 END BOND
M  V30 END CTAB
M  END
>  <i_epik_Tot_Q>  (1) 
1

>  <i_epik_Tot_abs_Q>  (1) 
1

>  <i_i_glide_confnum>  (1) 
487

>  <i_i_glide_lignum>  (1) 
114

>  <i_i_glide_posenum>  (1) 
100

>  <i_i_glide_rotatable_bonds>  (1) 
11

>  <i_lp_mmshare_version>  (1) 
72125

>  <i_m_source_file_index>  (1) 
71

>  <i_f3d_flags>  (1) 
0

>  <num_sample>  (1) 
100

>  <b_lp_Chiralities_Consistent>  (1) 
1

>  <r_epik_Charging_Adjusted_Penalty>  (1) 
0.028882640618341202

>  <r_epik_Ionization_Penalty>  (1) 
0.014531529159765241

>  <r_epik_Ionization_Penalty_Charging>  (1) 
0.014441320309170608

>  <r_epik_Ionization_Penalty_Neutral>  (1) 
9.020885059463329e-05

>  <r_epik_State_Penalty>  (1) 
0.014441320309170594

>  <r_glide_ring_energy>  (1) 
0

>  <r_i_docking_score>  (1) 
-5.6715420479234435

>  <r_i_glide_ecoul>  (1) 
-9.3574765652901544

>  <r_i_glide_eff_state_penalty>  (1) 
0.014441320309170594

>  <r_i_glide_einternal>  (1) 
14.237161701413452

>  <r_i_glide_emodel>  (1) 
-54.775299787772866

>  <r_i_glide_emodel_strain>  (1) 
1.87541397175535

>  <r_i_glide_energy>  (1) 
-46.430200031584889

>  <r_i_glide_erotb>  (1) 
0.62084064417162321

>  <r_i_glide_esite>  (1) 
-0.11777146016897377

>  <r_i_glide_evdw>  (1) 
-37.072723466294732

>  <r_i_glide_gscore>  (1) 
-5.6859833682326144

>  <r_i_glide_gscore_strain>  (1) 
0

>  <r_i_glide_hbond>  (1) 
-0.52000000000000002

>  <r_i_glide_ligand_efficiency>  (1) 
-0.15754283466454011

>  <r_i_glide_ligand_efficiency_ln>  (1) 
-1.2373772474983638

>  <r_i_glide_ligand_efficiency_sa>  (1) 
-0.52019497864694597

>  <r_i_glide_lipo>  (1) 
-1.6353881190651758

>  <r_i_glide_metal>  (1) 
-0

>  <r_i_glide_rewards>  (1) 
-0.77640677506182709

>  <r_lp_Energy>  (1) 
37.300145999999998

>  <r_lp_tautomer_probability>  (1) 
1

>  <s_epik_cmdline>  (1) 
J2VwaWtfcHl0aG9uJywgJy1waHQnLCAnMS4wJywgJy1waCcsICc3LjQnLCAnLXRuJywgJzgnLCAnLW1hJywgJzUwMCcsICctaW1hZScsICc8aW5maWxlLm1hZT4nLCAnLW9tYWUnLCAnPG91dGZpbGUubWFlPic=

>  <s_epik_input>  (1) 
W2NIXTFjKENsKVtjSF1bY0hdYyhjMTIpYyhuW2NIXW4yKU9bQ0gyXVtDSDJdTihDKD1PKVtDQEBdMyhbQ0gzXSlPW0NIM10pW0NAQEhdKFtDSDNdKVtDQEBIXTNbQ0gyXVtDSDJdQyg9W0NIMl0pW0NASF0oW0NIM10pQzQ1W0NASF0oW0NIMl00KU41W0NIMl1bQ0gzXQ==

>  <s_glide_docking_method>  (1) 
confgen

>  <s_i_glide_gridfile>  (1) 
gpcr_drd2_6luq_protein_autoprepared_prepared

>  <s_lp_Force_Field>  (1) 
S-OPLS

>  <s_lp_Variant>  (1) 
DiffSBDD_70-2

>  <s_m_source_file>  (1) 
generated_generic_title2_ligand_DiffSBDD_2026-06-23_prepared.sdf

>  <GenAI_Model>  (1) 
DiffSBDD

>  <Protein>  (1) 
generic_title2

$$$$
DiffSBDD_65
     RDKit          3D

  0  0  0  0  0  0  0  0  0  0999 V3000
M  V30 BEGIN CTAB
M  V30 COUNTS 66 68 0 0 1
M  V30 BEGIN ATOM
M  V30 1 C 10.050494 6.923776 -9.905678 0 CFG=2
M  V30 2 N 9.777642 4.857422 -15.005377 0
M  V30 3 C 10.494683 6.897321 -8.408161 0
M  V30 4 C 7.708076 4.550587 -19.114363 0
M  V30 5 C 4.537022 5.949136 -20.867790 0
M  V30 6 C 6.565965 6.342605 -20.398007 0 CFG=1
M  V30 7 O 9.375360 8.122438 -10.227789 0
M  V30 8 O 11.293129 4.869895 -16.704155 0
M  V30 9 O 8.760223 4.373309 -18.222936 0
M  V30 10 O 8.032772 5.588646 -9.598459 0
M  V30 11 C 9.234828 5.669583 -10.326962 0 CFG=1
M  V30 12 C 7.053405 7.705902 -20.919617 0
M  V30 13 C 9.499138 7.375401 -7.321297 0
M  V30 14 O 3.766921 7.200196 -17.920647 0
M  V30 15 C 6.069483 5.427304 -22.894970 0
M  V30 16 C 8.483433 5.069277 -14.859885 0
M  V30 17 F 11.595577 7.648237 -8.300098 0
M  V30 18 C 9.159594 3.312485 -12.340852 0
M  V30 19 C 8.914415 5.396254 -17.239833 0 CFG=1
M  V30 20 C 8.345770 4.617125 -12.320399 0 CFG=2
M  V30 21 C 7.726606 5.001851 -13.672029 0
M  V30 22 N 6.389010 5.261529 -13.668865 0
M  V30 23 O 9.051176 5.709258 -11.718180 0
M  V30 24 C 8.350695 7.639721 -21.737884 0
M  V30 25 F 10.842096 5.658398 -8.059378 0
M  V30 26 C 6.563189 5.660189 -16.095983 0
M  V30 27 C 5.854261 5.369596 -21.386018 0 CFG=2
M  V30 28 C 7.924831 5.376488 -16.035341 0
M  V30 29 C 4.811766 7.566009 -18.790557 0
M  V30 30 O 9.201444 8.752457 -7.405574 0
M  V30 31 C 10.148678 5.007685 -16.282077 0
M  V30 32 O 7.682670 5.845393 -19.639281 0
M  V30 33 C 5.827907 5.593120 -14.878136 0
M  V30 34 C 5.249837 6.335751 -19.575549 0 CFG=1
M  V30 35 H 10.953430 6.904553 -10.516884 0
M  V30 36 H 10.391410 4.621578 -14.235486 0
M  V30 37 H 7.856683 3.843048 -19.929073 0
M  V30 38 H 6.806044 4.269238 -18.583018 0
M  V30 39 H 3.747600 5.209927 -20.742647 0
M  V30 40 H 4.191839 6.817236 -21.432106 0
M  V30 41 H 8.448611 8.026245 -9.984953 0
M  V30 42 H 7.610703 6.458378 -9.586715 0
M  V30 43 H 9.779533 4.758333 -10.101791 0
M  V30 44 H 6.278609 8.185437 -21.519352 0
M  V30 45 H 7.226623 8.375886 -20.079035 0
M  V30 46 H 9.924818 7.205750 -6.332541 0
M  V30 47 H 8.579176 6.795460 -7.353859 0
M  V30 48 H 3.455840 7.982751 -17.489638 0
M  V30 49 H 5.947590 6.437817 -23.281864 0
M  V30 50 H 7.055784 5.071785 -23.184864 0
M  V30 51 H 5.337507 4.808411 -23.412628 0
M  V30 52 H 8.636235 2.518285 -12.878141 0
M  V30 53 H 10.134354 3.462776 -12.785455 0
M  V30 54 H 9.364472 2.951059 -11.335383 0
M  V30 55 H 9.067439 6.385718 -17.668733 0
M  V30 56 H 7.484225 4.396591 -11.692707 0
M  V30 57 H 8.655810 8.634593 -22.054726 0
M  V30 58 H 9.167038 7.222475 -21.150049 0
M  V30 59 H 8.242105 7.029367 -22.631241 0
M  V30 60 H 6.087130 5.921082 -17.023338 0
M  V30 61 H 5.920781 4.338636 -21.039698 0
M  V30 62 H 5.628065 7.967307 -18.192993 0
M  V30 63 H 4.480575 8.363586 -19.452852 0
M  V30 64 H 8.710186 8.890991 -8.201897 0
M  V30 65 H 4.772067 5.802094 -14.867933 0
M  V30 66 H 5.188151 5.464411 -18.934466 0
M  V30 END ATOM
M  V30 BEGIN BOND
M  V30 1 1 3 1
M  V30 2 1 7 1
M  V30 3 1 9 4
M  V30 4 1 11 1
M  V30 5 1 11 10
M  V30 6 1 12 6
M  V30 7 1 13 3
M  V30 8 1 16 2
M  V30 9 1 17 3
M  V30 10 1 19 9
M  V30 11 1 20 18
M  V30 12 1 21 16
M  V30 13 1 21 20
M  V30 14 2 22 21
M  V30 15 1 23 11
M  V30 16 1 23 20
M  V30 17 1 24 12
M  V30 18 1 25 3
M  V30 19 1 27 5
M  V30 20 1 27 6
M  V30 21 1 27 15
M  V30 22 2 28 16
M  V30 23 1 28 19
M  V30 24 1 28 26
M  V30 25 1 29 14
M  V30 26 1 30 13
M  V30 27 1 31 2
M  V30 28 2 31 8
M  V30 29 1 31 19
M  V30 30 1 32 4
M  V30 31 1 6 32 CFG=1
M  V30 32 1 33 22
M  V30 33 2 33 26
M  V30 34 1 34 5
M  V30 35 1 34 6
M  V30 36 1 34 29
M  V30 37 1 1 35 CFG=3
M  V30 38 1 36 2
M  V30 39 1 37 4
M  V30 40 1 38 4
M  V30 41 1 39 5
M  V30 42 1 40 5
M  V30 43 1 41 7
M  V30 44 1 42 10
M  V30 45 1 11 43 CFG=3
M  V30 46 1 44 12
M  V30 47 1 45 12
M  V30 48 1 46 13
M  V30 49 1 47 13
M  V30 50 1 48 14
M  V30 51 1 49 15
M  V30 52 1 50 15
M  V30 53 1 51 15
M  V30 54 1 52 18
M  V30 55 1 53 18
M  V30 56 1 54 18
M  V30 57 1 19 55 CFG=3
M  V30 58 1 20 56 CFG=1
M  V30 59 1 57 24
M  V30 60 1 58 24
M  V30 61 1 59 24
M  V30 62 1 60 26
M  V30 63 1 27 61 CFG=1
M  V30 64 1 62 29
M  V30 65 1 63 29
M  V30 66 1 64 30
M  V30 67 1 65 33
M  V30 68 1 34 66 CFG=1
M  V30 END BOND
M  V30 END CTAB
M  END
>  <i_epik_Tot_Q>  (1) 
0

>  <i_epik_Tot_abs_Q>  (1) 
0

>  <i_i_glide_confnum>  (1) 
881

>  <i_i_glide_lignum>  (1) 
107

>  <i_i_glide_posenum>  (1) 
23

>  <i_i_glide_rotatable_bonds>  (1) 
16

>  <i_lp_mmshare_version>  (1) 
72125

>  <i_m_source_file_index>  (1) 
66

>  <i_f3d_flags>  (1) 
0

>  <num_sample>  (1) 
100

>  <b_lp_Chiralities_Consistent>  (1) 
1

>  <r_epik_Charging_Adjusted_Penalty>  (1) 
0

>  <r_epik_Ionization_Penalty>  (1) 
0.020984920231991385

>  <r_epik_Ionization_Penalty_Charging>  (1) 
0

>  <r_epik_Ionization_Penalty_Neutral>  (1) 
0.020984920231991385

>  <r_epik_State_Penalty>  (1) 
-0

>  <r_glide_ring_energy>  (1) 
0

>  <r_i_docking_score>  (1) 
-5.663634767582864

>  <r_i_glide_ecoul>  (1) 
-16.038690032875884

>  <r_i_glide_eff_state_penalty>  (1) 
-0

>  <r_i_glide_einternal>  (1) 
15.422480389557014

>  <r_i_glide_emodel>  (1) 
-42.616556581893889

>  <r_i_glide_emodel_strain>  (1) 
1.8497278341362318

>  <r_i_glide_energy>  (1) 
-40.522933282569454

>  <r_i_glide_erotb>  (1) 
0.93044466926125857

>  <r_i_glide_esite>  (1) 
-0.067775333942769675

>  <r_i_glide_evdw>  (1) 
-24.48424324969357

>  <r_i_glide_gscore>  (1) 
-5.663634767582864

>  <r_i_glide_gscore_strain>  (1) 
0

>  <r_i_glide_hbond>  (1) 
-0.58689386151320544

>  <r_i_glide_ligand_efficiency>  (1) 
-0.1665774931642019

>  <r_i_glide_ligand_efficiency_ln>  (1) 
-1.251255779733353

>  <r_i_glide_ligand_efficiency_sa>  (1) 
-0.53964641268196778

>  <r_i_glide_lipo>  (1) 
-1.6163353796813635

>  <r_i_glide_metal>  (1) 
-0

>  <r_i_glide_rewards>  (1) 
-0.69305919429072271

>  <r_lp_Energy>  (1) 
34.219946999999998

>  <r_lp_tautomer_probability>  (1) 
1

>  <s_epik_Chemistry_Notes>  (1) 
This compound contains an acetal/aminal-like group ( X-CH(R)-Y where X, Y are N, S, or O) that may be acid/base labile, releasing an aldehyde.

>  <s_epik_cmdline>  (1) 
J2VwaWtfcHl0aG9uJywgJy1waHQnLCAnMS4wJywgJy1waCcsICc3LjQnLCAnLXRuJywgJzgnLCAnLW1hJywgJzUwMCcsICctaW1hZScsICc8aW5maWxlLm1hZT4nLCAnLW9tYWUnLCAnPG91dGZpbGUubWFlPic=

>  <s_epik_input>  (1) 
W09IXVtDSDJdQyhGKShGKVtDQEhdKFtPSF0pW0NAQEhdKFtPSF0pT1tDQEhdKFtDSDNdKWMxbltjSF1bY0hdYyhjMTIpW0NASF0oQyg9TylbTkhdMilPW0NIMl1PW0NAQF0zKFtDSDJdW0NIM10pW0NASF0oW0NIM10pW0NIMl1bQ0BASF0zW0NIMl1bT0hd

>  <s_glide_docking_method>  (1) 
confgen

>  <s_i_glide_gridfile>  (1) 
gpcr_drd2_6luq_protein_autoprepared_prepared

>  <s_lp_Force_Field>  (1) 
S-OPLS

>  <s_lp_Variant>  (1) 
DiffSBDD_65-2

>  <s_m_source_file>  (1) 
generated_generic_title2_ligand_DiffSBDD_2026-06-23_prepared.sdf

>  <GenAI_Model>  (1) 
DiffSBDD

>  <Protein>  (1) 
generic_title2

$$$$
DiffSBDD_52
     RDKit          3D

  0  0  0  0  0  0  0  0  0  0999 V3000
M  V30 BEGIN CTAB
M  V30 COUNTS 50 53 0 0 1
M  V30 BEGIN ATOM
M  V30 1 C 12.049822 6.567092 -2.595246 0
M  V30 2 F 12.975415 8.390224 -1.236226 0
M  V30 3 C 8.823955 6.289106 -12.247062 0 CFG=1
M  V30 4 C 7.006676 4.390255 -11.311713 0
M  V30 5 C 7.718208 5.190083 -10.228646 0 CFG=2
M  V30 6 C 12.175409 8.973194 -3.315473 0
M  V30 7 C 10.308362 7.707528 -7.101914 0
M  V30 8 C 7.211698 3.226237 -13.584499 0
M  V30 9 C 12.405607 8.025441 -2.395686 0
M  V30 10 N 8.575425 6.230814 -10.784967 0 CFG=1 CHG=1
M  V30 11 C 11.298075 7.213267 -4.981620 0 CFG=2
M  V30 12 O 9.994660 6.871291 -12.328244 0 CHG=-1
M  V30 13 C 7.248725 4.309397 -14.656213 0
M  V30 14 O 10.222117 6.990539 -5.882207 0
M  V30 15 C 11.058508 6.340553 -3.749670 0
M  V30 16 C 7.958903 3.828318 -12.387011 0 CFG=1
M  V30 17 C 8.611676 4.974524 -14.465386 0
M  V30 18 C 9.375425 7.073462 -8.134726 0
M  V30 19 C 11.524575 8.712802 -4.662677 0
M  V30 20 C 9.214936 5.205399 -9.970971 0 CFG=1
M  V30 21 C 9.933575 5.777309 -8.745333 0
M  V30 22 C 8.916462 4.902478 -12.955357 0 CFG=1
M  V30 23 H 12.975410 6.028341 -2.785015 0
M  V30 24 H 11.643527 6.155565 -1.670770 0
M  V30 25 H 7.925586 6.774668 -12.631098 0
M  V30 26 H 6.438333 3.590318 -10.840153 0
M  V30 27 H 6.264627 5.040921 -11.777046 0
M  V30 28 H 7.077296 5.590176 -9.448633 0
M  V30 29 H 12.452754 9.990218 -3.103467 0
M  V30 30 H 10.003389 8.740103 -6.929242 0
M  V30 31 H 11.330863 7.732506 -7.482444 0
M  V30 32 H 7.749178 2.346653 -13.943269 0
M  V30 33 H 6.197033 2.907189 -13.343590 0
M  V30 34 H 12.175408 6.790239 -5.453715 0
M  V30 35 H 7.115372 3.908141 -15.661151 0
M  V30 36 H 6.452173 5.032601 -14.477705 0
M  V30 37 H 11.151576 5.326024 -4.098650 0
M  V30 38 H 10.035431 6.390099 -3.395183 0
M  V30 39 H 8.570691 3.041374 -11.944540 0
M  V30 40 H 9.369987 4.414767 -15.014434 0
M  V30 41 H 8.622921 5.990249 -14.858283 0
M  V30 42 H 8.414972 6.866190 -7.672302 0
M  V30 43 H 9.220533 7.824868 -8.908024 0
M  V30 44 H 10.576484 9.248545 -4.671216 0
M  V30 45 H 12.136476 9.170117 -5.441236 0
M  V30 46 H 9.795646 4.488618 -10.539074 0
M  V30 47 H 10.957936 5.990259 -9.042038 0
M  V30 48 H 9.992069 5.000213 -7.985066 0
M  V30 49 H 9.931271 4.515218 -12.843252 0
M  V30 50 H 8.359911 7.109735 -10.322959 0
M  V30 END ATOM
M  V30 BEGIN BOND
M  V30 1 1 5 4
M  V30 2 1 9 1
M  V30 3 1 9 2
M  V30 4 2 9 6
M  V30 5 1 10 3
M  V30 6 1 10 5
M  V30 7 1 12 3
M  V30 8 1 13 8
M  V30 9 1 14 7
M  V30 10 1 14 11
M  V30 11 1 15 1
M  V30 12 1 15 11
M  V30 13 1 16 4
M  V30 14 1 16 8
M  V30 15 1 17 13
M  V30 16 1 18 7
M  V30 17 1 19 6
M  V30 18 1 19 11
M  V30 19 1 20 5
M  V30 20 1 20 10
M  V30 21 1 21 18
M  V30 22 1 21 20
M  V30 23 1 22 3
M  V30 24 1 22 16
M  V30 25 1 22 17
M  V30 26 1 23 1
M  V30 27 1 24 1
M  V30 28 1 3 25 CFG=3
M  V30 29 1 26 4
M  V30 30 1 27 4
M  V30 31 1 5 28 CFG=1
M  V30 32 1 29 6
M  V30 33 1 30 7
M  V30 34 1 31 7
M  V30 35 1 32 8
M  V30 36 1 33 8
M  V30 37 1 11 34 CFG=3
M  V30 38 1 35 13
M  V30 39 1 36 13
M  V30 40 1 37 15
M  V30 41 1 38 15
M  V30 42 1 16 39 CFG=1
M  V30 43 1 40 17
M  V30 44 1 41 17
M  V30 45 1 42 18
M  V30 46 1 43 18
M  V30 47 1 44 19
M  V30 48 1 45 19
M  V30 49 1 20 46 CFG=3
M  V30 50 1 47 21
M  V30 51 1 48 21
M  V30 52 1 22 49 CFG=3
M  V30 53 1 10 50 CFG=1
M  V30 END BOND
M  V30 END CTAB
M  END
>  <i_epik_Tot_Q>  (1) 
0

>  <i_epik_Tot_abs_Q>  (1) 
2

>  <i_i_glide_confnum>  (1) 
28

>  <i_i_glide_lignum>  (1) 
82

>  <i_i_glide_posenum>  (1) 
64

>  <i_i_glide_rotatable_bonds>  (1) 
5

>  <i_lp_mmshare_version>  (1) 
72125

>  <i_m_source_file_index>  (1) 
53

>  <i_f3d_flags>  (1) 
0

>  <num_sample>  (1) 
100

>  <b_lp_Chiralities_Consistent>  (1) 
1

>  <r_epik_Charging_Adjusted_Penalty>  (1) 
0.66076975529779935

>  <r_epik_Ionization_Penalty>  (1) 
0.32551799850713803

>  <r_epik_Ionization_Penalty_Charging>  (1) 
0.32551799850601437

>  <r_epik_Ionization_Penalty_Neutral>  (1) 
1.1236391675704673e-12

>  <r_epik_State_Penalty>  (1) 
0.33525175679178498

>  <r_glide_ring_energy>  (1) 
0

>  <r_i_docking_score>  (1) 
-5.6634755176679716

>  <r_i_glide_ecoul>  (1) 
-4.1649829445256001

>  <r_i_glide_eff_state_penalty>  (1) 
0.33525175679178498

>  <r_i_glide_einternal>  (1) 
2.4966447075085694

>  <r_i_glide_emodel>  (1) 
-39.16996244973862

>  <r_i_glide_emodel_strain>  (1) 
0.76245212066589119

>  <r_i_glide_energy>  (1) 
-27.315876624399912

>  <r_i_glide_erotb>  (1) 
0.58016400484968

>  <r_i_glide_esite>  (1) 
-0.088525070466124442

>  <r_i_glide_evdw>  (1) 
-23.150893679874311

>  <r_i_glide_gscore>  (1) 
-5.9987272744597568

>  <r_i_glide_gscore_strain>  (1) 
0

>  <r_i_glide_hbond>  (1) 
-0.14999439385433219

>  <r_i_glide_ligand_efficiency>  (1) 
-0.25743070534854418

>  <r_i_glide_ligand_efficiency_ln>  (1) 
-1.3843599968068905

>  <r_i_glide_ligand_efficiency_sa>  (1) 
-0.72133096130497898

>  <r_i_glide_lipo>  (1) 
-2.2680389584862741

>  <r_i_glide_metal>  (1) 
-0

>  <r_i_glide_rewards>  (1) 
-2.2900407308301518

>  <r_lp_Energy>  (1) 
29.210184999999999

>  <s_epik_Chemistry_Notes>  (1) 
This compound contains an acetal/aminal-like group ( X-CH(R)-Y where X, Y are N, S, or O) that may be acid/base labile, releasing an aldehyde.

>  <s_epik_cmdline>  (1) 
J2VwaWtfcHl0aG9uJywgJy1waHQnLCAnMS4wJywgJy1waCcsICc3LjQnLCAnLXRuJywgJzgnLCAnLW1hJywgJzUwMCcsICctaW1hZScsICc8aW5maWxlLm1hZT4nLCAnLW9tYWUnLCAnPG91dGZpbGUubWFlPic=

>  <s_epik_input>  (1) 
RkMxPVtDSF1bQ0gyXVtDQEBIXShbQ0gyXVtDSDJdMSlPW0NIMl1bQ0gyXVtDSDJdW0NAQEhdMk4oW0NASF0yMylbQ0BASF0oW09IXSlbQ0BIXTRbQ0BASF0oW0NIMl0zKVtDSDJdW0NIMl1bQ0gyXTQ=

>  <s_glide_docking_method>  (1) 
confgen

>  <s_i_glide_gridfile>  (1) 
gpcr_drd2_6luq_protein_autoprepared_prepared

>  <s_lp_Force_Field>  (1) 
S-OPLS

>  <s_lp_Variant>  (1) 
DiffSBDD_52-1

>  <s_m_source_file>  (1) 
generated_generic_title2_ligand_DiffSBDD_2026-06-23_prepared.sdf

>  <GenAI_Model>  (1) 
DiffSBDD

>  <Protein>  (1) 
generic_title2

$$$$
DiffSBDD_67
     RDKit          3D

  0  0  0  0  0  0  0  0  0  0999 V3000
M  V30 BEGIN CTAB
M  V30 COUNTS 67 69 0 0 1
M  V30 BEGIN ATOM
M  V30 1 C 7.173277 0.645638 -17.065964 0
M  V30 2 C 7.076733 2.618413 -13.794170 0
M  V30 3 C 7.893811 -1.705302 -17.729804 0
M  V30 4 C 7.576852 6.800107 -12.153586 0
M  V30 5 F 8.041890 1.238963 -19.220637 0
M  V30 6 C 9.413696 5.593427 -9.563455 0
M  V30 7 C 10.052259 6.664706 -6.868965 0
M  V30 8 C 11.130796 8.416601 -5.383197 0
M  V30 9 C 9.911966 7.057686 -9.446197 0 CFG=2
M  V30 10 C 10.890742 8.790227 -7.860545 0
M  V30 11 C 8.017727 3.161123 -16.091372 0
M  V30 12 C 7.355953 2.255191 -15.224445 0
M  V30 13 C 11.731500 9.097219 -6.616675 0
M  V30 14 C 5.598472 5.400871 -12.452590 0
M  V30 15 C 8.247324 2.810150 -17.434090 0
M  V30 16 C 10.730046 7.563891 -10.661882 0
M  V30 17 C 7.824003 1.561146 -17.923465 0
M  V30 18 C 6.823366 4.572130 -12.071295 0 CFG=2
M  V30 19 C 6.155518 6.805178 -12.739294 0
M  V30 20 O 6.510902 1.866569 -13.001367 0
M  V30 21 C 6.942655 0.995083 -15.713025 0
M  V30 22 N 7.650313 5.561561 -11.348319 0 CFG=1 CHG=1
M  V30 23 F 8.818029 -1.262021 -18.581280 0
M  V30 24 C 5.534263 -1.355613 -16.849208 0
M  V30 25 C 8.991318 5.075772 -10.945755 0
M  V30 26 C 6.717781 -0.716822 -17.608656 0
M  V30 27 C 10.707105 7.287886 -8.126276 0
M  V30 28 C 7.536637 4.014381 -13.339338 0
M  V30 29 F 4.490420 -0.530039 -16.824310 0
M  V30 30 C 10.893275 6.915123 -5.607140 0
M  V30 31 H 8.395643 -1.870260 -16.780229 0
M  V30 32 H 7.562076 -2.673949 -18.104126 0
M  V30 33 H 8.306119 6.757060 -12.963915 0
M  V30 34 H 7.785087 7.701798 -11.581997 0
M  V30 35 H 8.574677 5.455653 -8.878740 0
M  V30 36 H 10.175409 4.918211 -9.186937 0
M  V30 37 H 9.047672 7.069494 -6.732009 0
M  V30 38 H 9.934935 5.590227 -6.980171 0
M  V30 39 H 11.760088 8.580706 -4.508341 0
M  V30 40 H 10.175422 8.895020 -5.185029 0
M  V30 41 H 9.015005 7.674789 -9.405626 0
M  V30 42 H 11.349670 9.304006 -8.702481 0
M  V30 43 H 9.887183 9.190224 -7.732551 0
M  V30 44 H 8.347217 4.122637 -15.735955 0
M  V30 45 H 12.762028 8.790206 -6.785021 0
M  V30 46 H 11.766412 10.175274 -6.454152 0
M  V30 47 H 5.028351 4.983297 -13.283500 0
M  V30 48 H 4.941304 5.452830 -11.585028 0
M  V30 49 H 8.747118 3.504001 -18.093582 0
M  V30 50 H 11.752227 7.189959 -10.664369 0
M  V30 51 H 10.278275 7.328188 -11.621502 0
M  V30 52 H 10.801442 8.648267 -10.654219 0
M  V30 53 H 6.547965 3.774274 -11.379994 0
M  V30 54 H 6.179531 7.018651 -13.808676 0
M  V30 55 H 5.533912 7.567343 -12.266286 0
M  V30 56 H 6.442375 0.303695 -15.052252 0
M  V30 57 H 5.197713 -2.272767 -17.334158 0
M  V30 58 H 5.775412 -1.609791 -15.818865 0
M  V30 59 H 8.930297 3.990307 -10.844525 0
M  V30 60 H 9.743764 5.238094 -11.716533 0
M  V30 61 H 6.351655 -0.533495 -18.620056 0
M  V30 62 H 11.692222 6.835233 -8.240850 0
M  V30 63 H 8.612941 3.939794 -13.193018 0
M  V30 64 H 7.376444 4.739860 -14.133468 0
M  V30 65 H 11.843795 6.390182 -5.696465 0
M  V30 66 H 10.390509 6.484813 -4.740277 0
M  V30 67 H 7.155365 5.783369 -10.491140 0
M  V30 END ATOM
M  V30 BEGIN BOND
M  V30 1 1 9 6
M  V30 2 1 12 2
M  V30 3 1 12 11
M  V30 4 1 13 8
M  V30 5 1 13 10
M  V30 6 2 15 11
M  V30 7 1 16 9
M  V30 8 2 17 1
M  V30 9 1 17 5
M  V30 10 1 17 15
M  V30 11 1 18 14
M  V30 12 1 19 4
M  V30 13 1 19 14
M  V30 14 2 20 2
M  V30 15 1 21 1
M  V30 16 2 21 12
M  V30 17 1 22 4
M  V30 18 1 22 18
M  V30 19 1 23 3
M  V30 20 1 25 6
M  V30 21 1 25 22
M  V30 22 1 26 1
M  V30 23 1 26 3
M  V30 24 1 26 24
M  V30 25 1 27 7
M  V30 26 1 27 9
M  V30 27 1 27 10
M  V30 28 1 28 2
M  V30 29 1 28 18
M  V30 30 1 29 24
M  V30 31 1 30 7
M  V30 32 1 30 8
M  V30 33 1 31 3
M  V30 34 1 32 3
M  V30 35 1 33 4
M  V30 36 1 34 4
M  V30 37 1 35 6
M  V30 38 1 36 6
M  V30 39 1 37 7
M  V30 40 1 38 7
M  V30 41 1 39 8
M  V30 42 1 40 8
M  V30 43 1 9 41 CFG=1
M  V30 44 1 42 10
M  V30 45 1 43 10
M  V30 46 1 44 11
M  V30 47 1 45 13
M  V30 48 1 46 13
M  V30 49 1 47 14
M  V30 50 1 48 14
M  V30 51 1 49 15
M  V30 52 1 50 16
M  V30 53 1 51 16
M  V30 54 1 52 16
M  V30 55 1 18 53 CFG=1
M  V30 56 1 54 19
M  V30 57 1 55 19
M  V30 58 1 56 21
M  V30 59 1 57 24
M  V30 60 1 58 24
M  V30 61 1 59 25
M  V30 62 1 60 25
M  V30 63 1 61 26
M  V30 64 1 62 27
M  V30 65 1 63 28
M  V30 66 1 64 28
M  V30 67 1 65 30
M  V30 68 1 66 30
M  V30 69 1 22 67 CFG=1
M  V30 END BOND
M  V30 END CTAB
M  END
>  <i_epik_Tot_Q>  (1) 
1

>  <i_epik_Tot_abs_Q>  (1) 
1

>  <i_i_glide_confnum>  (1) 
9

>  <i_i_glide_lignum>  (1) 
109

>  <i_i_glide_posenum>  (1) 
318

>  <i_i_glide_rotatable_bonds>  (1) 
10

>  <i_lp_mmshare_version>  (1) 
72125

>  <i_m_source_file_index>  (1) 
68

>  <i_f3d_flags>  (1) 
0

>  <num_sample>  (1) 
100

>  <b_lp_Chiralities_Consistent>  (1) 
1

>  <r_epik_Charging_Adjusted_Penalty>  (1) 
0.0091991127420811905

>  <r_epik_Ionization_Penalty>  (1) 
0.0045995563710408641

>  <r_epik_Ionization_Penalty_Charging>  (1) 
0.0045995563710406013

>  <r_epik_Ionization_Penalty_Neutral>  (1) 
2.6311653613664267e-16

>  <r_epik_State_Penalty>  (1) 
0.0045995563710405883

>  <r_glide_ring_energy>  (1) 
0

>  <r_i_docking_score>  (1) 
-5.6584509803476113

>  <r_i_glide_ecoul>  (1) 
-5.1242305860012483

>  <r_i_glide_eff_state_penalty>  (1) 
0.0045995563710405883

>  <r_i_glide_einternal>  (1) 
10.523840303057298

>  <r_i_glide_emodel>  (1) 
-47.117944176698124

>  <r_i_glide_emodel_strain>  (1) 
1.8810800457078827

>  <r_i_glide_energy>  (1) 
-40.278796908801176

>  <r_i_glide_erotb>  (1) 
0.77002039440311598

>  <r_i_glide_esite>  (1) 
-0.063402523905272637

>  <r_i_glide_evdw>  (1) 
-35.15456632279993

>  <r_i_glide_gscore>  (1) 
-5.6630505367186519

>  <r_i_glide_gscore_strain>  (1) 
0

>  <r_i_glide_hbond>  (1) 
-0.031543607851798737

>  <r_i_glide_ligand_efficiency>  (1) 
-0.18861503267825372

>  <r_i_glide_ligand_efficiency_ln>  (1) 
-1.285661716496487

>  <r_i_glide_ligand_efficiency_sa>  (1) 
-0.58607076064941932

>  <r_i_glide_lipo>  (1) 
-1.8836409847988198

>  <r_i_glide_metal>  (1) 
-0

>  <r_i_glide_rewards>  (1) 
-1.9281209105256922

>  <r_lp_Energy>  (1) 
33.086953000000001

>  <r_lp_tautomer_probability>  (1) 
0.99990000499974985

>  <s_epik_cmdline>  (1) 
J2VwaWtfcHl0aG9uJywgJy1waHQnLCAnMS4wJywgJy1waCcsICc3LjQnLCAnLXRuJywgJzgnLCAnLW1hJywgJzUwMCcsICctaW1hZScsICc8aW5maWxlLm1hZT4nLCAnLW9tYWUnLCAnPG91dGZpbGUubWFlPic=

>  <s_epik_input>  (1) 
RltDSDJdW0NIXShbQ0gyXUYpYzFjKEYpW2NIXVtjSF1jKFtjSF0xKUMoPU8pW0NIMl1bQ0BASF0yW0NIMl1bQ0gyXVtDSDJdTjJbQ0gyXVtDSDJdW0NASF0oW0NIM10pW0NIXTNbQ0gyXVtDSDJdW0NIMl1bQ0gyXVtDSDJdMw==

>  <s_glide_docking_method>  (1) 
confgen

>  <s_i_glide_gridfile>  (1) 
gpcr_drd2_6luq_protein_autoprepared_prepared

>  <s_lp_Force_Field>  (1) 
S-OPLS

>  <s_lp_Variant>  (1) 
DiffSBDD_67-1

>  <s_m_source_file>  (1) 
generated_generic_title2_ligand_DiffSBDD_2026-06-23_prepared.sdf

>  <GenAI_Model>  (1) 
DiffSBDD

>  <Protein>  (1) 
generic_title2

$$$$
DiffSBDD_72
     RDKit          3D

  0  0  0  0  0  0  0  0  0  0999 V3000
M  V30 BEGIN CTAB
M  V30 COUNTS 47 49 0 0 1
M  V30 BEGIN ATOM
M  V30 1 C 12.204285 8.200514 -3.071859 0
M  V30 2 C 12.133498 8.561742 -7.577973 0
M  V30 3 C 9.613199 8.324000 -7.006544 0
M  V30 4 C 11.375410 8.122604 -5.204182 0
M  V30 5 C 12.800924 8.790227 -1.852768 0
M  V30 6 C 11.217469 6.802060 -4.831276 0
M  V30 7 C 7.630747 3.904970 -14.080781 0
M  V30 8 C 6.444485 3.817778 -13.120642 0
M  V30 9 C 11.013978 8.754961 -6.529465 0 CFG=1
M  V30 10 N 11.946283 8.893707 -4.181059 0
M  V30 11 C 8.939759 6.136789 -11.502612 0
M  V30 12 C 9.723085 7.199597 -9.336145 0 CFG=2
M  V30 13 C 9.559790 7.010669 -7.807934 0
M  V30 14 C 8.407810 4.839507 -12.144525 0 CFG=1
M  V30 15 C 6.921339 4.558089 -11.879369 0
M  V30 16 S 11.775410 6.522317 -3.202943 0
M  V30 17 O 8.436844 4.952103 -13.559993 0
M  V30 18 O 8.522743 5.090126 -9.397074 0 CHG=-1
M  V30 19 N 9.375410 5.893686 -10.066850 0 CFG=1 CHG=1
M  V30 20 C 11.151224 7.616819 -9.759695 0
M  V30 21 C 11.744655 8.841463 -9.047469 0
M  V30 22 H 12.977717 9.190226 -7.294027 0
M  V30 23 H 12.514902 7.542073 -7.521350 0
M  V30 24 H 8.951321 8.251856 -6.142287 0
M  V30 25 H 9.172882 9.114354 -7.615574 0
M  V30 26 H 12.170290 9.590230 -1.464608 0
M  V30 27 H 12.933430 8.029513 -1.085329 0
M  V30 28 H 13.775410 9.190226 -2.105200 0
M  V30 29 H 10.808821 5.990227 -5.407041 0
M  V30 30 H 7.326297 4.108936 -15.107627 0
M  V30 31 H 8.195534 2.971992 -14.071548 0
M  V30 32 H 5.563055 4.305265 -13.538798 0
M  V30 33 H 6.184699 2.780614 -12.906522 0
M  V30 34 H 10.938067 9.830620 -6.363203 0
M  V30 35 H 8.180683 6.920041 -11.496520 0
M  V30 36 H 9.817074 6.499439 -12.036309 0
M  V30 37 H 8.998947 7.939132 -9.676544 0
M  V30 38 H 8.575410 6.596787 -7.595079 0
M  V30 39 H 10.274500 6.273080 -7.451003 0
M  V30 40 H 9.023084 3.982488 -11.861233 0
M  V30 41 H 6.762191 3.990227 -10.962752 0
M  V30 42 H 6.366782 5.491940 -11.779490 0
M  V30 43 H 11.164007 7.817714 -10.829842 0
M  V30 44 H 11.834815 6.790227 -9.600618 0
M  V30 45 H 11.083216 9.696023 -9.163409 0
M  V30 46 H 12.655432 9.114679 -9.581282 0
M  V30 47 H 10.289815 5.402097 -10.155583 0
M  V30 END ATOM
M  V30 BEGIN BOND
M  V30 1 1 5 1
M  V30 2 2 6 4
M  V30 3 1 8 7
M  V30 4 1 9 2
M  V30 5 1 9 3
M  V30 6 1 9 4
M  V30 7 2 10 1
M  V30 8 1 10 4
M  V30 9 1 13 3
M  V30 10 1 13 12
M  V30 11 1 14 11
M  V30 12 1 15 8
M  V30 13 1 15 14
M  V30 14 1 16 1
M  V30 15 1 16 6
M  V30 16 1 17 7
M  V30 17 1 17 14
M  V30 18 1 19 11
M  V30 19 1 19 12
M  V30 20 1 19 18
M  V30 21 1 20 12
M  V30 22 1 21 2
M  V30 23 1 21 20
M  V30 24 1 22 2
M  V30 25 1 23 2
M  V30 26 1 24 3
M  V30 27 1 25 3
M  V30 28 1 26 5
M  V30 29 1 27 5
M  V30 30 1 28 5
M  V30 31 1 29 6
M  V30 32 1 30 7
M  V30 33 1 31 7
M  V30 34 1 32 8
M  V30 35 1 33 8
M  V30 36 1 9 34 CFG=1
M  V30 37 1 35 11
M  V30 38 1 36 11
M  V30 39 1 12 37 CFG=3
M  V30 40 1 38 13
M  V30 41 1 39 13
M  V30 42 1 14 40 CFG=3
M  V30 43 1 41 15
M  V30 44 1 42 15
M  V30 45 1 43 20
M  V30 46 1 44 20
M  V30 47 1 45 21
M  V30 48 1 46 21
M  V30 49 1 19 47 CFG=3
M  V30 END BOND
M  V30 END CTAB
M  END
>  <i_epik_Tot_Q>  (1) 
0

>  <i_epik_Tot_abs_Q>  (1) 
2

>  <i_i_glide_confnum>  (1) 
172

>  <i_i_glide_lignum>  (1) 
118

>  <i_i_glide_posenum>  (1) 
200

>  <i_i_glide_rotatable_bonds>  (1) 
4

>  <i_lp_mmshare_version>  (1) 
72125

>  <i_m_source_file_index>  (1) 
73

>  <i_f3d_flags>  (1) 
0

>  <num_sample>  (1) 
100

>  <b_lp_Chiralities_Consistent>  (1) 
1

>  <r_epik_Charging_Adjusted_Penalty>  (1) 
0.52782075658533367

>  <r_epik_Ionization_Penalty>  (1) 
0.0061787587503483845

>  <r_epik_Ionization_Penalty_Charging>  (1) 
0.0058496280333447418

>  <r_epik_Ionization_Penalty_Neutral>  (1) 
0.00032913071700364294

>  <r_epik_State_Penalty>  (1) 
0.52197112855198891

>  <r_glide_ring_energy>  (1) 
0.39787127286498092

>  <r_i_docking_score>  (1) 
-5.6571701822964391

>  <r_i_glide_ecoul>  (1) 
-0.038923790514930667

>  <r_i_glide_eff_state_penalty>  (1) 
0.52197112855198891

>  <r_i_glide_einternal>  (1) 
9.4887279802706868

>  <r_i_glide_emodel>  (1) 
-42.139855323528003

>  <r_i_glide_emodel_strain>  (1) 
0.33418049846489595

>  <r_i_glide_energy>  (1) 
-34.868858730574289

>  <r_i_glide_erotb>  (1) 
0.76903323708162985

>  <r_i_glide_esite>  (1) 
-0.063106043461165509

>  <r_i_glide_evdw>  (1) 
-34.82993494005936

>  <r_i_glide_gscore>  (1) 
-6.1791413108484283

>  <r_i_glide_gscore_strain>  (1) 
0

>  <r_i_glide_hbond>  (1) 
0

>  <r_i_glide_ligand_efficiency>  (1) 
-0.26938905629983045

>  <r_i_glide_ligand_efficiency_ln>  (1) 
-1.39872389618408

>  <r_i_glide_ligand_efficiency_sa>  (1) 
-0.74322398027809711

>  <r_i_glide_lipo>  (1) 
-2.9454274161614111

>  <r_i_glide_metal>  (1) 
-0

>  <r_i_glide_rewards>  (1) 
-2.192305772727273

>  <r_lp_Energy>  (1) 
15.897221

>  <s_epik_cmdline>  (1) 
J2VwaWtfcHl0aG9uJywgJy1waHQnLCAnMS4wJywgJy1waCcsICc3LjQnLCAnLXRuJywgJzgnLCAnLW1hJywgJzUwMCcsICctaW1hZScsICc8aW5maWxlLm1hZT4nLCAnLW9tYWUnLCAnPG91dGZpbGUubWFlPic=

>  <s_epik_input>  (1) 
W0NIM11jMW5jKFtjSF1zMSlbQ0BIXTJbQ0gyXVtDSDJdW0NIMl1bQ0BIXShbQ0gyXVtDSDJdMilOKFtPSF0pW0NIMl1bQ0BIXTNbQ0gyXVtDSDJdW0NIMl1PMw==

>  <s_glide_docking_method>  (1) 
confgen

>  <s_i_glide_gridfile>  (1) 
gpcr_drd2_6luq_protein_autoprepared_prepared

>  <s_lp_Force_Field>  (1) 
S-OPLS

>  <s_lp_Variant>  (1) 
DiffSBDD_72-2

>  <s_m_source_file>  (1) 
generated_generic_title2_ligand_DiffSBDD_2026-06-23_prepared.sdf

>  <GenAI_Model>  (1) 
DiffSBDD

>  <Protein>  (1) 
generic_title2

$$$$
DiffSBDD_94
     RDKit          3D

  0  0  0  0  0  0  0  0  0  0999 V3000
M  V30 BEGIN CTAB
M  V30 COUNTS 66 70 0 0 1
M  V30 BEGIN ATOM
M  V30 1 C 8.921579 4.984276 -15.605367 0
M  V30 2 C 7.569480 4.909613 -11.398612 0
M  V30 3 O 10.603186 9.590118 -5.985015 0
M  V30 4 C 8.349519 4.697526 -14.213634 0
M  V30 5 C 10.464083 8.275291 -6.470480 0 CFG=1
M  V30 6 N 5.140312 0.141540 -14.673457 0
M  V30 7 C 5.820340 0.210005 -13.498776 0
M  V30 8 C 7.804147 4.883362 -16.649337 0 CFG=2
M  V30 9 C 7.093294 0.724748 -15.815286 0
M  V30 10 C 11.580470 7.802346 -7.368932 0 CFG=1
M  V30 11 Cl 6.175434 7.039695 -17.401934 0
M  V30 12 C 11.550868 7.437791 -5.889068 0
M  V30 13 C 7.733264 1.027703 -17.169819 0 CFG=2
M  V30 14 C 8.399478 6.781298 -11.841306 0
M  V30 15 C 7.240244 6.000907 -12.420381 0 CFG=1
M  V30 16 C 6.580890 5.769196 -16.223842 0 CFG=2
M  V30 17 C 9.758118 6.775870 -8.863556 0 CFG=1
M  V30 18 C 8.699692 -0.088869 -17.595748 0
M  V30 19 C 7.180166 0.540982 -13.428234 0
M  V30 20 O 5.716663 7.168947 -14.470569 0
M  V30 21 N 5.778373 0.390212 -15.835025 0
M  V30 22 N 8.175425 5.990229 -10.618443 0 CFG=2 CHG=1
M  V30 23 C 11.234608 6.789771 -8.455066 0
M  V30 24 N 7.322296 5.694651 -13.860985 0
M  V30 25 F 12.487925 8.770104 -7.761975 0
M  V30 26 C 9.407381 5.663897 -9.883648 0
M  V30 27 C 7.840138 0.809644 -14.626535 0
M  V30 28 C 9.073542 7.711160 -6.539368 0
M  V30 29 O 8.301605 5.590228 -7.361996 0
M  V30 30 C 6.510334 6.281946 -14.769933 0
M  V30 31 C 8.369493 2.436737 -17.217365 0
M  V30 32 C 8.975407 6.593304 -7.568357 0
M  V30 33 N 7.375413 3.468399 -16.828472 0 CHG=1
M  V30 34 H 9.776223 4.350857 -15.827121 0
M  V30 35 H 9.332135 5.990241 -15.624163 0
M  V30 36 H 8.287333 4.140643 -11.679610 0
M  V30 37 H 6.700550 4.478864 -10.901625 0
M  V30 38 H 11.411380 9.940594 -6.332554 0
M  V30 39 H 9.197761 4.724124 -13.530265 0
M  V30 40 H 7.928870 3.693140 -14.145394 0
M  V30 41 H 5.260229 -0.005704 -12.602130 0
M  V30 42 H 8.190068 5.232099 -17.608968 0
M  V30 43 H 12.175402 7.959328 -5.166341 0
M  V30 44 H 11.304414 6.411281 -5.620944 0
M  V30 45 H 6.927923 1.020654 -17.906258 0
M  V30 46 H 8.202122 7.844620 -11.706990 0
M  V30 47 H 9.354400 6.607831 -12.341170 0
M  V30 48 H 6.293399 6.474000 -12.138332 0
M  V30 49 H 5.675100 5.190223 -16.261355 0
M  V30 50 H 9.505011 7.748628 -9.287553 0
M  V30 51 H 8.194623 -1.055179 -17.606820 0
M  V30 52 H 9.088043 0.089666 -18.598903 0
M  V30 53 H 9.550751 -0.172583 -16.920465 0
M  V30 54 H 7.697659 0.587136 -12.480971 0
M  V30 55 H 11.375413 5.799520 -8.024101 0
M  V30 56 H 11.881949 6.923510 -9.321381 0
M  V30 57 H 10.175411 5.536692 -10.630950 0
M  V30 58 H 9.314830 4.685925 -9.406203 0
M  V30 59 H 8.883946 1.075553 -14.637776 0
M  V30 60 H 8.902140 7.250406 -5.585022 0
M  V30 61 H 8.332815 8.490193 -6.716301 0
M  V30 62 H 8.744765 2.658410 -18.217135 0
M  V30 63 H 9.227095 2.444761 -16.550357 0
M  V30 64 H 6.960912 3.168765 -15.956837 0
M  V30 65 H 6.647863 3.456477 -17.529936 0
M  V30 66 H 7.506956 6.512064 -10.034619 0
M  V30 END ATOM
M  V30 BEGIN BOND
M  V30 1 1 4 1
M  V30 2 1 5 3 CFG=1
M  V30 3 1 7 6
M  V30 4 1 8 1
M  V30 5 1 10 5
M  V30 6 1 12 5
M  V30 7 1 12 10
M  V30 8 1 13 9
M  V30 9 1 15 2
M  V30 10 1 15 14
M  V30 11 1 16 8
M  V30 12 1 16 11
M  V30 13 1 18 13
M  V30 14 2 19 7
M  V30 15 2 21 6
M  V30 16 1 21 9
M  V30 17 1 22 2
M  V30 18 1 22 14
M  V30 19 1 23 10
M  V30 20 1 23 17
M  V30 21 1 24 4
M  V30 22 1 24 15
M  V30 23 1 10 25 CFG=3
M  V30 24 1 26 17
M  V30 25 1 26 22
M  V30 26 2 27 9
M  V30 27 1 27 19
M  V30 28 1 28 5
M  V30 29 1 30 16
M  V30 30 2 30 20
M  V30 31 1 30 24
M  V30 32 1 31 13
M  V30 33 1 32 17
M  V30 34 1 32 28
M  V30 35 2 32 29
M  V30 36 1 33 8
M  V30 37 1 33 31
M  V30 38 1 34 1
M  V30 39 1 35 1
M  V30 40 1 36 2
M  V30 41 1 37 2
M  V30 42 1 38 3
M  V30 43 1 39 4
M  V30 44 1 40 4
M  V30 45 1 41 7
M  V30 46 1 8 42 CFG=3
M  V30 47 1 43 12
M  V30 48 1 44 12
M  V30 49 1 13 45 CFG=3
M  V30 50 1 46 14
M  V30 51 1 47 14
M  V30 52 1 15 48 CFG=1
M  V30 53 1 16 49 CFG=1
M  V30 54 1 17 50 CFG=3
M  V30 55 1 51 18
M  V30 56 1 52 18
M  V30 57 1 53 18
M  V30 58 1 54 19
M  V30 59 1 55 23
M  V30 60 1 56 23
M  V30 61 1 57 26
M  V30 62 1 58 26
M  V30 63 1 59 27
M  V30 64 1 60 28
M  V30 65 1 61 28
M  V30 66 1 62 31
M  V30 67 1 63 31
M  V30 68 1 64 33
M  V30 69 1 65 33
M  V30 70 1 22 66 CFG=1
M  V30 END BOND
M  V30 END CTAB
M  END
>  <i_epik_Tot_Q>  (1) 
2

>  <i_epik_Tot_abs_Q>  (1) 
2

>  <i_i_glide_confnum>  (1) 
290

>  <i_i_glide_lignum>  (1) 
179

>  <i_i_glide_posenum>  (1) 
341

>  <i_i_glide_rotatable_bonds>  (1) 
8

>  <i_lp_mmshare_version>  (1) 
72125

>  <i_m_source_file_index>  (1) 
95

>  <i_f3d_flags>  (1) 
0

>  <num_sample>  (1) 
100

>  <b_lp_Chiralities_Consistent>  (1) 
1

>  <r_epik_Charging_Adjusted_Penalty>  (1) 
0.95188217531897845

>  <r_epik_Ionization_Penalty>  (1) 
0.49022780398244736

>  <r_epik_Ionization_Penalty_Charging>  (1) 
0.49020808109847258

>  <r_epik_Ionization_Penalty_Neutral>  (1) 
1.9722883974789891e-05

>  <r_epik_State_Penalty>  (1) 
0.46167409422050587

>  <r_glide_ring_energy>  (1) 
1.3165782718524275

>  <r_i_docking_score>  (1) 
-5.6554192234345848

>  <r_i_glide_ecoul>  (1) 
-10.034383429969115

>  <r_i_glide_eff_state_penalty>  (1) 
0.46167409422050587

>  <r_i_glide_einternal>  (1) 
17.092122737626394

>  <r_i_glide_emodel>  (1) 
-43.272462058150666

>  <r_i_glide_emodel_strain>  (1) 
4.9872317301926046

>  <r_i_glide_energy>  (1) 
-36.700371741832427

>  <r_i_glide_erotb>  (1) 
0.52401424714319955

>  <r_i_glide_esite>  (1) 
-0.26397145889400164

>  <r_i_glide_evdw>  (1) 
-26.665988311863309

>  <r_i_glide_gscore>  (1) 
-6.1170933176550903

>  <r_i_glide_gscore_strain>  (1) 
0.24680793254815114

>  <r_i_glide_hbond>  (1) 
-0.20000000000000001

>  <r_i_glide_ligand_efficiency>  (1) 
-0.17137634010407832

>  <r_i_glide_ligand_efficiency_ln>  (1) 
-1.2577359530982619

>  <r_i_glide_ligand_efficiency_sa>  (1) 
-0.54969549423287178

>  <r_i_glide_lipo>  (1) 
-1.8972238908508516

>  <r_i_glide_metal>  (1) 
-0

>  <r_i_glide_rewards>  (1) 
-1.6882632175130545

>  <r_lp_Energy>  (1) 
63.815528

>  <r_lp_tautomer_probability>  (1) 
0.99999998000000001

>  <s_epik_cmdline>  (1) 
J2VwaWtfcHl0aG9uJywgJy1waHQnLCAnMS4wJywgJy1waCcsICc3LjQnLCAnLXRuJywgJzgnLCAnLW1hJywgJzUwMCcsICctaW1hZScsICc8aW5maWxlLm1hZT4nLCAnLW9tYWUnLCAnPG91dGZpbGUubWFlPic=

>  <s_epik_input>  (1) 
W2NIXTFbY0hdW2NIXW5uYzFbQ0BIXShbQ0gzXSlbQ0gyXVtOSF1bQ0BASF0yW0NIMl1bQ0gyXU4oQyg9TylbQ0BIXTJDbClbQ0hdM1tDSDJdTihbQ0gyXTMpW0NIMl1bQ0BASF0oQyg9TylbQ0gyXTQpW0NIMl1bQ0BdKEYpKFtDSDJdNSlbQ0BAXTQ1W09IXQ==

>  <s_glide_docking_method>  (1) 
confgen

>  <s_i_glide_gridfile>  (1) 
gpcr_drd2_6luq_protein_autoprepared_prepared

>  <s_lp_Force_Field>  (1) 
S-OPLS

>  <s_lp_Variant>  (1) 
DiffSBDD_94-2

>  <s_m_source_file>  (1) 
generated_generic_title2_ligand_DiffSBDD_2026-06-23_prepared.sdf

>  <GenAI_Model>  (1) 
DiffSBDD

>  <Protein>  (1) 
generic_title2

$$$$
DiffSBDD_8
     RDKit          3D

  0  0  0  0  0  0  0  0  0  0999 V3000
M  V30 BEGIN CTAB
M  V30 COUNTS 62 64 0 0 1
M  V30 BEGIN ATOM
M  V30 1 C 8.609516 5.858268 -10.846109 0
M  V30 2 O 11.375983 8.782609 -7.948106 0
M  V30 3 C 10.450492 4.529022 -18.363036 0
M  V30 4 N 12.194035 8.393431 -9.986402 0
M  V30 5 C 6.281470 6.041257 -17.056658 0 CFG=2
M  V30 6 C 8.968442 5.183522 -16.043595 0
M  V30 7 N 9.378195 7.029993 -8.022163 0 CHG=1
M  V30 8 C 4.891641 5.262722 -20.189144 0
M  V30 9 C 5.296704 7.750706 -20.089820 0
M  V30 10 O 4.722515 7.589603 -17.565423 0
M  V30 11 C 9.045706 4.523544 -18.406597 0
M  V30 12 C 5.439110 3.850425 -19.940480 0
M  V30 13 O 6.923062 4.838060 -17.334539 0
M  V30 14 S 8.998156 4.819507 -13.293125 0
M  V30 15 C 5.826042 5.991493 -15.584862 0
M  V30 16 C 8.178438 5.532645 -14.761394 0 CFG=2
M  V30 17 N 8.858957 6.176204 -12.248140 0 CFG=2 CHG=1
M  V30 18 F 11.162161 4.214393 -19.471368 0
M  V30 19 C 3.324671 7.485901 -17.379619 0
M  V30 20 C 10.132436 6.781886 -11.859659 0
M  V30 21 C 6.717214 5.087228 -14.736122 0
M  V30 22 C 9.513676 7.040451 -10.480738 0 CFG=2
M  V30 23 C 5.602997 6.394988 -19.407724 0 CFG=1
M  V30 24 N 5.206289 6.301120 -17.987363 0
M  V30 25 C 11.333761 8.146179 -8.997906 0
M  V30 26 C 11.117692 4.861317 -17.172363 0
M  V30 27 C 10.384276 5.187249 -16.017532 0
M  V30 28 C 8.295535 4.850965 -17.259600 0
M  V30 29 C 10.314786 7.004848 -9.158646 0 CFG=1
M  V30 30 H 7.564808 5.962286 -10.549652 0
M  V30 31 H 9.016894 4.891915 -10.539149 0
M  V30 32 H 12.880807 9.132257 -9.881403 0
M  V30 33 H 12.159852 7.852721 -10.835035 0
M  V30 34 H 7.002224 6.849181 -17.177263 0
M  V30 35 H 9.849580 7.453483 -7.233765 0
M  V30 36 H 8.559422 7.586041 -8.266419 0
M  V30 37 H 3.820852 5.273117 -19.985311 0
M  V30 38 H 4.984902 5.458379 -21.258452 0
M  V30 39 H 5.668453 7.756917 -21.114324 0
M  V30 40 H 4.227272 7.951515 -20.140240 0
M  V30 41 H 5.765641 8.591087 -19.582962 0
M  V30 42 H 8.539645 4.268924 -19.324773 0
M  V30 43 H 4.888712 3.116197 -20.529651 0
M  V30 44 H 6.486282 3.776610 -20.229540 0
M  V30 45 H 5.352925 3.556370 -18.895055 0
M  V30 46 H 5.785718 7.007919 -15.189989 0
M  V30 47 H 4.817688 5.594930 -15.541084 0
M  V30 48 H 8.175570 6.618172 -14.665968 0
M  V30 49 H 2.953518 8.368495 -16.858501 0
M  V30 50 H 2.831323 7.442507 -18.346886 0
M  V30 51 H 3.024142 6.612701 -16.798458 0
M  V30 52 H 10.955169 6.066082 -11.881638 0
M  V30 53 H 10.375850 7.678038 -12.425916 0
M  V30 54 H 6.336629 5.147738 -13.715742 0
M  V30 55 H 6.622034 4.036634 -15.015307 0
M  V30 56 H 8.955613 7.976701 -10.548297 0
M  V30 57 H 6.679711 6.240645 -19.484968 0
M  V30 58 H 12.196983 4.865122 -17.143635 0
M  V30 59 H 10.909251 5.440816 -15.110115 0
M  V30 60 H 10.868178 6.072043 -9.080426 0
M  V30 61 H 8.203297 6.885041 -12.548490 0
M  V30 62 H 9.062577 6.101544 -7.786319 0
M  V30 END ATOM
M  V30 BEGIN BOND
M  V30 1 2 11 3
M  V30 2 1 12 8
M  V30 3 1 13 5
M  V30 4 1 15 5
M  V30 5 1 16 6
M  V30 6 1 16 14
M  V30 7 1 17 1
M  V30 8 1 17 14
M  V30 9 1 18 3
M  V30 10 1 19 10
M  V30 11 1 20 17
M  V30 12 1 21 15
M  V30 13 1 21 16
M  V30 14 1 22 1
M  V30 15 1 22 20
M  V30 16 1 23 8
M  V30 17 1 23 9
M  V30 18 1 24 5
M  V30 19 1 24 10
M  V30 20 1 24 23
M  V30 21 2 25 2
M  V30 22 1 25 4
M  V30 23 1 26 3
M  V30 24 1 27 6
M  V30 25 2 27 26
M  V30 26 2 28 6
M  V30 27 1 28 11
M  V30 28 1 28 13
M  V30 29 1 29 7
M  V30 30 1 29 22
M  V30 31 1 29 25
M  V30 32 1 30 1
M  V30 33 1 31 1
M  V30 34 1 32 4
M  V30 35 1 33 4
M  V30 36 1 5 34 CFG=1
M  V30 37 1 35 7
M  V30 38 1 36 7
M  V30 39 1 37 8
M  V30 40 1 38 8
M  V30 41 1 39 9
M  V30 42 1 40 9
M  V30 43 1 41 9
M  V30 44 1 42 11
M  V30 45 1 43 12
M  V30 46 1 44 12
M  V30 47 1 45 12
M  V30 48 1 46 15
M  V30 49 1 47 15
M  V30 50 1 16 48 CFG=1
M  V30 51 1 49 19
M  V30 52 1 50 19
M  V30 53 1 51 19
M  V30 54 1 52 20
M  V30 55 1 53 20
M  V30 56 1 54 21
M  V30 57 1 55 21
M  V30 58 1 22 56 CFG=3
M  V30 59 1 23 57 CFG=1
M  V30 60 1 58 26
M  V30 61 1 59 27
M  V30 62 1 29 60 CFG=3
M  V30 63 1 17 61 CFG=3
M  V30 64 1 62 7
M  V30 END BOND
M  V30 END CTAB
M  END
>  <i_epik_Tot_Q>  (1) 
2

>  <i_epik_Tot_abs_Q>  (1) 
2

>  <i_i_glide_confnum>  (1) 
29

>  <i_i_glide_lignum>  (1) 
14

>  <i_i_glide_posenum>  (1) 
220

>  <i_i_glide_rotatable_bonds>  (1) 
8

>  <i_lp_mmshare_version>  (1) 
72125

>  <i_m_source_file_index>  (1) 
9

>  <i_f3d_flags>  (1) 
0

>  <num_sample>  (1) 
100

>  <b_lp_Chiralities_Consistent>  (1) 
1

>  <r_epik_Charging_Adjusted_Penalty>  (1) 
1.8967099088143093

>  <r_epik_Ionization_Penalty>  (1) 
0.97230814562840162

>  <r_epik_Ionization_Penalty_Charging>  (1) 
0.97206898566559774

>  <r_epik_Ionization_Penalty_Neutral>  (1) 
0.00023915996280393024

>  <r_epik_State_Penalty>  (1) 
0.9246409231487116

>  <r_glide_ring_energy>  (1) 
0

>  <r_i_docking_score>  (1) 
-5.6547747871263798

>  <r_i_glide_ecoul>  (1) 
-6.9302609542090874

>  <r_i_glide_eff_state_penalty>  (1) 
0.9246409231487116

>  <r_i_glide_einternal>  (1) 
2.5738637037840419

>  <r_i_glide_emodel>  (1) 
-57.105645818067288

>  <r_i_glide_emodel_strain>  (1) 
3.4864822565796345

>  <r_i_glide_energy>  (1) 
-37.956996072192865

>  <r_i_glide_erotb>  (1) 
0.37853286695913396

>  <r_i_glide_esite>  (1) 
-0.10000000000000001

>  <r_i_glide_evdw>  (1) 
-31.02673511798378

>  <r_i_glide_gscore>  (1) 
-6.5794157102750912

>  <r_i_glide_gscore_strain>  (1) 
0

>  <r_i_glide_hbond>  (1) 
-0.26395170276592533

>  <r_i_glide_ligand_efficiency>  (1) 
-0.19499223403884069

>  <r_i_glide_ligand_efficiency_ln>  (1) 
-1.2948000335356016

>  <r_i_glide_ligand_efficiency_sa>  (1) 
-0.59907792151560291

>  <r_i_glide_lipo>  (1) 
-1.6464818441092874

>  <r_i_glide_metal>  (1) 
-0

>  <r_i_glide_rewards>  (1) 
-2.3566391313284587

>  <r_lp_Energy>  (1) 
57.067200999999997

>  <r_lp_tautomer_probability>  (1) 
1

>  <s_epik_Chemistry_Notes>  (1) 
This compound contains an acetal/aminal-like group ( X-CH(R)-Y where X, Y are N, S, or O) that may be acid/base labile, releasing an aldehyde. This compound has a N-S or N-O group and may undergo hydrolysis at high or low pH.

>  <s_epik_cmdline>  (1) 
J2VwaWtfcHl0aG9uJywgJy1waHQnLCAnMS4wJywgJy1waCcsICc3LjQnLCAnLXRuJywgJzgnLCAnLW1hJywgJzUwMCcsICctaW1hZScsICc8aW5maWxlLm1hZT4nLCAnLW9tYWUnLCAnPG91dGZpbGUubWFlPic=

>  <s_epik_input>  (1) 
Tz1DKFtOSDJdKVtDQEBIXShbTkgyXSlbQ0hdKFtDSDJdMSlbQ0gyXU4xU1tDQEBIXTJbQ0gyXVtDSDJdW0NASF0oTihPW0NIM10pW0NASF0oW0NIM10pW0NIMl1bQ0gzXSlPYyhjMjMpW2NIXWMoRilbY0hdW2NIXTM=

>  <s_glide_docking_method>  (1) 
confgen

>  <s_i_glide_gridfile>  (1) 
gpcr_drd2_6luq_protein_autoprepared_prepared

>  <s_lp_Force_Field>  (1) 
S-OPLS

>  <s_lp_Variant>  (1) 
DiffSBDD_8-4

>  <s_m_source_file>  (1) 
generated_generic_title2_ligand_DiffSBDD_2026-06-23_prepared.sdf

>  <GenAI_Model>  (1) 
DiffSBDD

>  <Protein>  (1) 
generic_title2

$$$$
DiffSBDD_8
     RDKit          3D

  0  0  0  0  0  0  0  0  0  0999 V3000
M  V30 BEGIN CTAB
M  V30 COUNTS 61 63 0 0 1
M  V30 BEGIN ATOM
M  V30 1 C 10.350297 7.635947 -10.943290 0
M  V30 2 O 11.375426 7.149189 -6.760959 0
M  V30 3 C 7.475958 1.489488 -14.686771 0
M  V30 4 N 11.696241 9.342779 -6.497342 0
M  V30 5 C 7.245605 6.213019 -15.457751 0 CFG=2
M  V30 6 C 8.230722 3.975093 -13.564737 0
M  V30 7 N 13.057310 8.390231 -9.199154 0
M  V30 8 C 4.896243 7.821685 -18.121287 0
M  V30 9 C 4.488886 5.911518 -16.630721 0
M  V30 10 O 6.903315 5.849404 -17.777304 0
M  V30 11 C 7.469481 2.646424 -15.481160 0
M  V30 12 C 3.375751 7.950055 -18.299341 0
M  V30 13 O 7.865492 4.991783 -15.751466 0
M  V30 14 S 9.365133 5.176055 -11.251901 0
M  V30 15 C 6.472359 6.208953 -14.106635 0
M  V30 16 C 8.628101 5.332975 -12.941195 0 CFG=2
M  V30 17 N 9.202771 6.788080 -10.648444 0 CFG=1 CHG=1
M  V30 18 F 7.111006 0.300889 -15.220276 0
M  V30 19 C 7.988935 6.321768 -18.559566 0
M  V30 20 C 9.459111 6.974131 -9.213636 0
M  V30 21 C 7.456059 6.344920 -12.937627 0
M  V30 22 C 10.892704 7.339892 -9.541740 0 CFG=2
M  V30 23 C 5.254703 7.177746 -16.766696 0 CFG=1
M  V30 24 N 6.657261 6.790226 -16.690049 0
M  V30 25 C 11.551180 8.258286 -7.257318 0
M  V30 26 C 7.872210 1.562979 -13.343637 0
M  V30 27 C 8.255256 2.796536 -12.785024 0
M  V30 28 C 7.844472 3.890377 -14.933192 0
M  V30 29 C 11.660759 8.431281 -8.779089 0 CFG=1
M  V30 30 H 10.983219 7.297991 -11.765346 0
M  V30 31 H 10.029893 8.667514 -11.076737 0
M  V30 32 H 11.650991 9.258625 -5.492925 0
M  V30 33 H 11.840573 10.243550 -6.925402 0
M  V30 34 H 8.136581 6.790231 -15.250718 0
M  V30 35 H 13.517685 9.295921 -9.158842 0
M  V30 36 H 13.594496 7.759108 -8.621866 0
M  V30 37 H 5.375399 8.790239 -18.200770 0
M  V30 38 H 5.276136 7.236476 -18.958665 0
M  V30 39 H 3.436448 6.043477 -16.385062 0
M  V30 40 H 4.575405 5.357068 -17.565416 0
M  V30 41 H 4.975409 5.292872 -15.882999 0
M  V30 42 H 7.179444 2.582431 -16.519612 0
M  V30 43 H 3.116769 8.530477 -19.184811 0
M  V30 44 H 2.928311 6.965679 -18.385022 0
M  V30 45 H 2.901299 8.390227 -17.424584 0
M  V30 46 H 5.793543 7.059759 -14.073841 0
M  V30 47 H 5.861024 5.313341 -13.987851 0
M  V30 48 H 9.420595 5.729837 -13.575830 0
M  V30 49 H 8.171277 5.619459 -19.373137 0
M  V30 50 H 7.775320 7.290573 -19.007274 0
M  V30 51 H 8.910562 6.390203 -17.984921 0
M  V30 52 H 8.975424 7.844595 -8.778092 0
M  V30 53 H 9.328147 6.085865 -8.593353 0
M  V30 54 H 7.843718 7.364177 -12.904987 0
M  V30 55 H 6.867842 6.215075 -12.027625 0
M  V30 56 H 11.423922 6.399793 -9.487183 0
M  V30 57 H 5.015612 7.868262 -15.958481 0
M  V30 58 H 7.889653 0.669367 -12.737935 0
M  V30 59 H 8.575388 2.830908 -11.759605 0
M  V30 60 H 11.251862 9.403389 -9.055371 0
M  V30 61 H 8.310384 7.225569 -10.856411 0
M  V30 END ATOM
M  V30 BEGIN BOND
M  V30 1 2 11 3
M  V30 2 1 12 8
M  V30 3 1 13 5
M  V30 4 1 15 5
M  V30 5 1 16 6
M  V30 6 1 16 14
M  V30 7 1 17 1
M  V30 8 1 17 14
M  V30 9 1 18 3
M  V30 10 1 19 10
M  V30 11 1 20 17
M  V30 12 1 21 15
M  V30 13 1 21 16
M  V30 14 1 22 1
M  V30 15 1 22 20
M  V30 16 1 23 8
M  V30 17 1 23 9
M  V30 18 1 24 5
M  V30 19 1 24 10
M  V30 20 1 24 23
M  V30 21 2 25 2
M  V30 22 1 25 4
M  V30 23 1 26 3
M  V30 24 1 27 6
M  V30 25 2 27 26
M  V30 26 2 28 6
M  V30 27 1 28 11
M  V30 28 1 28 13
M  V30 29 1 29 7
M  V30 30 1 29 22
M  V30 31 1 29 25
M  V30 32 1 30 1
M  V30 33 1 31 1
M  V30 34 1 32 4
M  V30 35 1 33 4
M  V30 36 1 5 34 CFG=1
M  V30 37 1 35 7
M  V30 38 1 36 7
M  V30 39 1 37 8
M  V30 40 1 38 8
M  V30 41 1 39 9
M  V30 42 1 40 9
M  V30 43 1 41 9
M  V30 44 1 42 11
M  V30 45 1 43 12
M  V30 46 1 44 12
M  V30 47 1 45 12
M  V30 48 1 46 15
M  V30 49 1 47 15
M  V30 50 1 16 48 CFG=3
M  V30 51 1 49 19
M  V30 52 1 50 19
M  V30 53 1 51 19
M  V30 54 1 52 20
M  V30 55 1 53 20
M  V30 56 1 54 21
M  V30 57 1 55 21
M  V30 58 1 22 56 CFG=3
M  V30 59 1 23 57 CFG=1
M  V30 60 1 58 26
M  V30 61 1 59 27
M  V30 62 1 29 60 CFG=1
M  V30 63 1 17 61 CFG=1
M  V30 END BOND
M  V30 END CTAB
M  END
>  <i_epik_Tot_Q>  (1) 
1

>  <i_epik_Tot_abs_Q>  (1) 
1

>  <i_i_glide_confnum>  (1) 
400

>  <i_i_glide_lignum>  (1) 
11

>  <i_i_glide_posenum>  (1) 
110

>  <i_i_glide_rotatable_bonds>  (1) 
8

>  <i_lp_mmshare_version>  (1) 
72125

>  <i_m_source_file_index>  (1) 
9

>  <i_f3d_flags>  (1) 
0

>  <num_sample>  (1) 
100

>  <b_lp_Chiralities_Consistent>  (1) 
1

>  <r_epik_Charging_Adjusted_Penalty>  (1) 
0.26758124344448359

>  <r_epik_Ionization_Penalty>  (1) 
0.27573061112751834

>  <r_epik_Ionization_Penalty_Charging>  (1) 
0.017350130917063531

>  <r_epik_Ionization_Penalty_Neutral>  (1) 
0.25838048021045479

>  <r_epik_State_Penalty>  (1) 
0.25023111252742003

>  <r_glide_ring_energy>  (1) 
1.6748309522073581

>  <r_i_docking_score>  (1) 
-5.6483051665901245

>  <r_i_glide_ecoul>  (1) 
-5.1989023672245187

>  <r_i_glide_eff_state_penalty>  (1) 
0.25023111252742003

>  <r_i_glide_einternal>  (1) 
20.465153552431929

>  <r_i_glide_emodel>  (1) 
-27.453065646994823

>  <r_i_glide_emodel_strain>  (1) 
3.8939240771614649

>  <r_i_glide_energy>  (1) 
-22.554565731332438

>  <r_i_glide_erotb>  (1) 
0.54307168116637361

>  <r_i_glide_esite>  (1) 
-0.10000000000000001

>  <r_i_glide_evdw>  (1) 
-17.355663364107919

>  <r_i_glide_gscore>  (1) 
-5.8985362791175442

>  <r_i_glide_gscore_strain>  (1) 
0

>  <r_i_glide_hbond>  (1) 
-0.40573688291038912

>  <r_i_glide_ligand_efficiency>  (1) 
-0.19476914367552153

>  <r_i_glide_ligand_efficiency_ln>  (1) 
-1.2933186544882207

>  <r_i_glide_ligand_efficiency_sa>  (1) 
-0.5983925172387291

>  <r_i_glide_lipo>  (1) 
-2.19009956099814

>  <r_i_glide_metal>  (1) 
-0

>  <r_i_glide_rewards>  (1) 
-2.0981529930863139

>  <r_lp_Energy>  (1) 
46.913368999999996

>  <r_lp_tautomer_probability>  (1) 
1

>  <s_epik_Chemistry_Notes>  (1) 
This compound contains an acetal/aminal-like group ( X-CH(R)-Y where X, Y are N, S, or O) that may be acid/base labile, releasing an aldehyde. This compound has a N-S or N-O group and may undergo hydrolysis at high or low pH.

>  <s_epik_cmdline>  (1) 
J2VwaWtfcHl0aG9uJywgJy1waHQnLCAnMS4wJywgJy1waCcsICc3LjQnLCAnLXRuJywgJzgnLCAnLW1hJywgJzUwMCcsICctaW1hZScsICc8aW5maWxlLm1hZT4nLCAnLW9tYWUnLCAnPG91dGZpbGUubWFlPic=

>  <s_epik_input>  (1) 
Tz1DKFtOSDJdKVtDQEBIXShbTkgyXSlbQ0hdKFtDSDJdMSlbQ0gyXU4xU1tDQEBIXTJbQ0gyXVtDSDJdW0NASF0oTihPW0NIM10pW0NASF0oW0NIM10pW0NIMl1bQ0gzXSlPYyhjMjMpW2NIXWMoRilbY0hdW2NIXTM=

>  <s_glide_docking_method>  (1) 
confgen

>  <s_i_glide_gridfile>  (1) 
gpcr_drd2_6luq_protein_autoprepared_prepared

>  <s_lp_Force_Field>  (1) 
S-OPLS

>  <s_lp_Variant>  (1) 
DiffSBDD_8-1

>  <s_m_source_file>  (1) 
generated_generic_title2_ligand_DiffSBDD_2026-06-23_prepared.sdf

>  <GenAI_Model>  (1) 
DiffSBDD

>  <Protein>  (1) 
generic_title2

$$$$
DiffSBDD_64
     RDKit          3D

  0  0  0  0  0  0  0  0  0  0999 V3000
M  V30 BEGIN CTAB
M  V30 COUNTS 77 80 0 0 1
M  V30 BEGIN ATOM
M  V30 1 C 5.893231 5.683592 -17.587415 0
M  V30 2 C 10.586415 8.319828 -9.515948 0
M  V30 3 C 7.652298 6.592511 -19.267124 0 CFG=2
M  V30 4 C 6.313388 5.792758 -12.374838 0
M  V30 5 C 10.379746 7.056274 -5.962675 0
M  V30 6 C 8.130850 6.644195 -21.864992 0
M  V30 7 C 6.468879 6.840118 -13.486894 0 CFG=1
M  V30 8 O 12.543091 7.990756 -8.163153 0
M  V30 9 C 6.049936 7.689475 -20.787102 0
M  V30 10 C 8.317762 5.197820 -19.326934 0
M  V30 11 C 7.662927 5.336096 -11.789403 0
M  V30 12 C 10.860629 8.481986 -5.754435 0
M  V30 13 C 10.763230 9.101542 -7.114212 0
M  V30 14 C 4.929676 5.439764 -20.547142 0
M  V30 15 N 6.272292 6.599312 -18.707081 0 CFG=1 CHG=1
M  V30 16 C 5.285773 7.890638 -16.377915 0
M  V30 17 C 11.126137 8.009998 -8.103485 0 CFG=1
M  V30 18 C 7.540251 7.347594 -20.626436 0 CFG=1
M  V30 19 C 5.313773 6.754251 -19.830572 0 CFG=1
M  V30 20 C 7.423843 7.940551 -12.999843 0
M  V30 21 C 8.721009 7.410087 -12.422294 0
M  V30 22 C 10.858285 7.189101 -10.505608 0
M  V30 23 C 9.455009 5.322264 -9.282490 0
M  V30 24 C 9.307184 6.149708 -8.014210 0
M  V30 25 C 10.618156 6.703542 -7.438032 0 CFG=2
M  V30 26 S 7.036163 6.123782 -15.072286 0
M  V30 27 N 8.483059 6.488842 -11.287709 0 CFG=2 CHG=1
M  V30 28 C 9.752453 6.074062 -10.606700 0 CFG=1
M  V30 29 C 5.652145 6.403517 -16.228378 0 CFG=2
M  V30 30 H 6.583430 4.854182 -17.456165 0
M  V30 31 H 4.967042 5.198072 -17.862833 0
M  V30 32 H 9.525313 8.569631 -9.501446 0
M  V30 33 H 11.092238 9.214365 -9.876416 0
M  V30 34 H 8.265245 7.193961 -18.596362 0
M  V30 35 H 5.750033 4.934476 -12.743370 0
M  V30 36 H 5.717607 6.220020 -11.565640 0
M  V30 37 H 10.837282 6.350482 -5.269094 0
M  V30 38 H 9.306297 7.049016 -5.791792 0
M  V30 39 H 7.696084 5.659650 -22.030596 0
M  V30 40 H 7.953505 7.232443 -22.764986 0
M  V30 41 H 9.211217 6.524077 -21.778646 0
M  V30 42 H 5.484415 7.275299 -13.646911 0
M  V30 43 H 12.845925 8.797274 -8.552647 0
M  V30 44 H 5.696420 7.606042 -21.814889 0
M  V30 45 H 5.881434 8.722920 -20.477627 0
M  V30 46 H 9.263421 5.234436 -19.866758 0
M  V30 47 H 8.571975 4.838476 -18.330782 0
M  V30 48 H 7.685406 4.449118 -19.804659 0
M  V30 49 H 8.228485 4.796934 -12.551276 0
M  V30 50 H 7.430107 4.604617 -11.020411 0
M  V30 51 H 11.872836 8.525931 -5.353901 0
M  V30 52 H 10.182215 9.055431 -5.144979 0
M  V30 53 H 11.380320 9.992597 -7.184882 0
M  V30 54 H 9.709944 9.355862 -7.234767 0
M  V30 55 H 4.231799 5.644315 -21.358929 0
M  V30 56 H 5.790399 4.940135 -20.987818 0
M  V30 57 H 4.436347 4.720987 -19.899323 0
M  V30 58 H 4.457188 8.006949 -17.074993 0
M  V30 59 H 4.958123 8.342354 -15.443544 0
M  V30 60 H 6.127380 8.482073 -16.733995 0
M  V30 61 H 8.075094 8.293215 -20.553740 0
M  V30 62 H 4.403016 7.232730 -19.466226 0
M  V30 63 H 7.691892 8.615613 -13.812715 0
M  V30 64 H 6.966351 8.509865 -12.192858 0
M  V30 65 H 9.270871 8.302205 -12.128665 0
M  V30 66 H 9.289313 6.869948 -13.181043 0
M  V30 67 H 11.824552 6.790312 -10.220432 0
M  V30 68 H 11.102338 7.586451 -11.487559 0
M  V30 69 H 10.175449 4.531495 -9.110580 0
M  V30 70 H 8.515850 4.790852 -9.343802 0
M  V30 71 H 8.865663 5.477445 -7.276580 0
M  V30 72 H 8.576107 6.942694 -8.138234 0
M  V30 73 H 11.373874 5.922420 -7.497887 0
M  V30 74 H 10.171977 5.331433 -11.287427 0
M  V30 75 H 4.799805 5.918470 -15.756149 0
M  V30 76 H 7.923316 6.992290 -10.594990 0
M  V30 77 H 6.222588 7.507360 -18.267997 0
M  V30 END ATOM
M  V30 BEGIN BOND
M  V30 1 1 7 4
M  V30 2 1 10 3
M  V30 3 1 11 4
M  V30 4 1 12 5
M  V30 5 1 13 12
M  V30 6 1 15 1
M  V30 7 1 15 3
M  V30 8 1 17 2
M  V30 9 1 17 8 CFG=3
M  V30 10 1 17 13
M  V30 11 1 18 3
M  V30 12 1 18 6
M  V30 13 1 18 9
M  V30 14 1 19 9
M  V30 15 1 19 14
M  V30 16 1 19 15
M  V30 17 1 20 7
M  V30 18 1 21 20
M  V30 19 1 22 2
M  V30 20 1 24 23
M  V30 21 1 25 5
M  V30 22 1 25 17
M  V30 23 1 25 24
M  V30 24 1 26 7
M  V30 25 1 27 11
M  V30 26 1 27 21
M  V30 27 1 28 22
M  V30 28 1 28 23
M  V30 29 1 28 27
M  V30 30 1 29 1
M  V30 31 1 29 16
M  V30 32 1 29 26
M  V30 33 1 30 1
M  V30 34 1 31 1
M  V30 35 1 32 2
M  V30 36 1 33 2
M  V30 37 1 3 34 CFG=1
M  V30 38 1 35 4
M  V30 39 1 36 4
M  V30 40 1 37 5
M  V30 41 1 38 5
M  V30 42 1 39 6
M  V30 43 1 40 6
M  V30 44 1 41 6
M  V30 45 1 7 42 CFG=3
M  V30 46 1 43 8
M  V30 47 1 44 9
M  V30 48 1 45 9
M  V30 49 1 46 10
M  V30 50 1 47 10
M  V30 51 1 48 10
M  V30 52 1 49 11
M  V30 53 1 50 11
M  V30 54 1 51 12
M  V30 55 1 52 12
M  V30 56 1 53 13
M  V30 57 1 54 13
M  V30 58 1 55 14
M  V30 59 1 56 14
M  V30 60 1 57 14
M  V30 61 1 58 16
M  V30 62 1 59 16
M  V30 63 1 60 16
M  V30 64 1 18 61 CFG=1
M  V30 65 1 19 62 CFG=1
M  V30 66 1 63 20
M  V30 67 1 64 20
M  V30 68 1 65 21
M  V30 69 1 66 21
M  V30 70 1 67 22
M  V30 71 1 68 22
M  V30 72 1 69 23
M  V30 73 1 70 23
M  V30 74 1 71 24
M  V30 75 1 72 24
M  V30 76 1 25 73 CFG=1
M  V30 77 1 28 74 CFG=3
M  V30 78 1 29 75 CFG=1
M  V30 79 1 27 76 CFG=1
M  V30 80 1 15 77 CFG=1
M  V30 END BOND
M  V30 END CTAB
M  END
>  <i_epik_Tot_Q>  (1) 
2

>  <i_epik_Tot_abs_Q>  (1) 
2

>  <i_i_glide_confnum>  (1) 
8

>  <i_i_glide_lignum>  (1) 
102

>  <i_i_glide_posenum>  (1) 
159

>  <i_i_glide_rotatable_bonds>  (1) 
6

>  <i_lp_mmshare_version>  (1) 
72125

>  <i_m_source_file_index>  (1) 
65

>  <i_f3d_flags>  (1) 
0

>  <num_sample>  (1) 
100

>  <b_lp_Chiralities_Consistent>  (1) 
1

>  <r_epik_Charging_Adjusted_Penalty>  (1) 
0.010385271147369776

>  <r_epik_Ionization_Penalty>  (1) 
0.010385491156522124

>  <r_epik_Ionization_Penalty_Charging>  (1) 
0.010385271147369776

>  <r_epik_Ionization_Penalty_Neutral>  (1) 
2.2000915234807092e-07

>  <r_epik_State_Penalty>  (1) 
-0

>  <r_glide_ring_energy>  (1) 
0.15487863939553917

>  <r_i_docking_score>  (1) 
-5.645824741766873

>  <r_i_glide_ecoul>  (1) 
-5.2841959460627379

>  <r_i_glide_eff_state_penalty>  (1) 
-0

>  <r_i_glide_einternal>  (1) 
4.4550507271678388

>  <r_i_glide_emodel>  (1) 
-33.64733504172446

>  <r_i_glide_emodel_strain>  (1) 
4.2160603369992202

>  <r_i_glide_energy>  (1) 
-31.406682888568799

>  <r_i_glide_erotb>  (1) 
0.5496323063178965

>  <r_i_glide_esite>  (1) 
-0.090230709877316059

>  <r_i_glide_evdw>  (1) 
-26.122486942506061

>  <r_i_glide_gscore>  (1) 
-5.645824741766873

>  <r_i_glide_gscore_strain>  (1) 
0.054015084249805057

>  <r_i_glide_hbond>  (1) 
-0.20000000000000001

>  <r_i_glide_ligand_efficiency>  (1) 
-0.19468361178506458

>  <r_i_glide_ligand_efficiency_ln>  (1) 
-1.2927507001018426

>  <r_i_glide_ligand_efficiency_sa>  (1) 
-0.5981297361725455

>  <r_i_glide_lipo>  (1) 
-2.447338433422543

>  <r_i_glide_metal>  (1) 
-0

>  <r_i_glide_rewards>  (1) 
-1.4131492500000007

>  <r_lp_Energy>  (1) 
54.772919999999999

>  <r_lp_tautomer_probability>  (1) 
1

>  <s_epik_cmdline>  (1) 
J2VwaWtfcHl0aG9uJywgJy1waHQnLCAnMS4wJywgJy1waCcsICc3LjQnLCAnLXRuJywgJzgnLCAnLW1hJywgJzUwMCcsICctaW1hZScsICc8aW5maWxlLm1hZT4nLCAnLW9tYWUnLCAnPG91dGZpbGUubWFlPic=

>  <s_epik_input>  (1) 
W0NIM11bQ0BIXTFbQ0gyXVtDQEBIXShbQ0gzXSlOKFtDQEhdMVtDSDNdKVtDSDJdW0NASF0oW0NIM10pU1tDSF0yW0NIMl1bQ0gyXU4oW0NIMl1bQ0gyXTIpW0NAQEhdKFtDSDJdW0NIMl0zKVtDSDJdW0NIMl1bQ0BASF0oW0NAQF0zNFtPSF0pW0NIMl1bQ0gyXVtDSDJdNA==

>  <s_glide_docking_method>  (1) 
confgen

>  <s_i_glide_gridfile>  (1) 
gpcr_drd2_6luq_protein_autoprepared_prepared

>  <s_lp_Force_Field>  (1) 
S-OPLS

>  <s_lp_Variant>  (1) 
DiffSBDD_64-1

>  <s_m_source_file>  (1) 
generated_generic_title2_ligand_DiffSBDD_2026-06-23_prepared.sdf

>  <GenAI_Model>  (1) 
DiffSBDD

>  <Protein>  (1) 
generic_title2

$$$$
DiffSBDD_1
     RDKit          3D

  0  0  0  0  0  0  0  0  0  0999 V3000
M  V30 BEGIN CTAB
M  V30 COUNTS 73 75 0 0 1
M  V30 BEGIN ATOM
M  V30 1 F 11.029436 0.200567 -17.585818 0
M  V30 2 C 9.532075 5.852689 -8.425407 0
M  V30 3 C 9.853609 2.779164 -19.932441 0
M  V30 4 C 9.980939 0.748626 -18.222627 0
M  V30 5 C 8.144937 3.784963 -12.391250 0 CFG=1
M  V30 6 C 6.639557 2.129008 -17.840097 0
M  V30 7 F 9.585196 0.507991 -20.567259 0
M  V30 8 C 11.290197 8.566582 -7.954666 0
M  V30 9 C 7.879701 2.897340 -18.341575 0 CFG=1
M  V30 10 C 8.375449 3.230129 -19.747971 0
M  V30 11 C 9.260141 4.539647 -11.600814 0
M  V30 12 C 8.575839 3.766221 -17.244181 0 CFG=1
M  V30 13 C 5.994785 6.356252 -13.998309 0
M  V30 14 O 7.495450 5.590222 -10.320900 0
M  V30 15 C 8.357694 4.512147 -14.889884 0
M  V30 16 C 7.494116 4.477328 -13.616577 0 CFG=2
M  V30 17 C 9.718014 6.260918 -9.701649 0
M  V30 18 C 10.844306 7.216196 -10.095584 0
M  V30 19 N 8.848210 0.812995 -17.620633 0
M  V30 20 C 6.471197 7.249153 -15.153124 0
M  V30 21 O 4.576435 7.731665 -19.528037 0
M  V30 22 O 8.761797 5.096035 -17.699464 0
M  V30 23 C 5.332802 7.546895 -16.097879 0
M  V30 24 C 10.196127 1.278370 -19.664980 0 CFG=1
M  V30 25 C 4.088460 7.303112 -18.274111 0
M  V30 26 C 8.787900 5.811718 -10.840954 0 CFG=1
M  V30 27 C 5.229986 7.020894 -17.328447 0
M  V30 28 O 9.387958 5.182452 -14.927426 0
M  V30 29 C 7.770820 1.364971 -18.401735 0 CFG=1
M  V30 30 O 8.575395 2.491112 -12.785133 0
M  V30 31 C 10.397383 7.783673 -6.986856 0
M  V30 32 N 7.909983 3.793224 -15.937138 0
M  V30 33 C 10.761303 8.582523 -9.397026 0
M  V30 34 C 10.396909 6.271692 -7.252036 0
M  V30 35 O 7.077926 5.799110 -13.262339 0
M  V30 36 H 8.715383 5.182759 -8.196063 0
M  V30 37 H 10.145494 3.016058 -20.955654 0
M  V30 38 H 10.494517 3.398028 -19.304414 0
M  V30 39 H 7.328530 3.590534 -11.697706 0
M  V30 40 H 6.453323 1.944004 -16.784468 0
M  V30 41 H 5.737438 2.205490 -18.444772 0
M  V30 42 H 11.376055 9.590507 -7.594723 0
M  V30 43 H 12.306462 8.171660 -7.932197 0
M  V30 44 H 7.743001 2.739877 -20.490934 0
M  V30 45 H 8.266151 4.294366 -19.959606 0
M  V30 46 H 9.661377 3.850106 -10.857729 0
M  V30 47 H 10.096652 4.785955 -12.255118 0
M  V30 48 H 9.575886 3.366777 -17.074739 0
M  V30 49 H 5.408622 6.965648 -13.309442 0
M  V30 50 H 5.316079 5.579776 -14.354814 0
M  V30 51 H 7.196768 6.451913 -9.985343 0
M  V30 52 H 6.602440 3.888263 -13.837969 0
M  V30 53 H 11.819211 6.790536 -9.868520 0
M  V30 54 H 10.822104 7.359139 -11.176323 0
M  V30 55 H 7.250259 6.757261 -15.725643 0
M  V30 56 H 6.908460 8.177265 -14.784972 0
M  V30 57 H 5.168318 7.075607 -19.862637 0
M  V30 58 H 9.124660 5.586907 -16.972986 0
M  V30 59 H 4.569426 8.220678 -15.736846 0
M  V30 60 H 11.255596 1.145553 -19.888038 0
M  V30 61 H 3.405791 8.037520 -17.854785 0
M  V30 62 H 3.509259 6.390322 -18.387044 0
M  V30 63 H 8.683367 6.637933 -11.544605 0
M  V30 64 H 5.996367 6.347183 -17.685735 0
M  V30 65 H 7.538626 0.804403 -19.307223 0
M  V30 66 H 8.951774 2.047575 -12.032926 0
M  V30 67 H 9.377048 8.171685 -7.007453 0
M  V30 68 H 10.763274 7.954855 -5.974125 0
M  V30 69 H 7.059948 3.260550 -15.834219 0
M  V30 70 H 9.739576 8.964703 -9.430212 0
M  V30 71 H 11.375406 9.286933 -9.955298 0
M  V30 72 H 9.985668 5.776279 -6.374507 0
M  V30 73 H 11.407414 5.886402 -7.371889 0
M  V30 END ATOM
M  V30 BEGIN BOND
M  V30 1 1 4 1
M  V30 2 1 9 6 CFG=3
M  V30 3 1 10 3
M  V30 4 1 10 9
M  V30 5 1 11 5
M  V30 6 1 12 9
M  V30 7 1 16 5
M  V30 8 1 16 15
M  V30 9 2 17 2
M  V30 10 1 18 17
M  V30 11 2 19 4
M  V30 12 1 20 13
M  V30 13 1 22 12
M  V30 14 1 23 20
M  V30 15 1 24 3
M  V30 16 1 24 4
M  V30 17 1 24 7
M  V30 18 1 25 21
M  V30 19 1 26 11
M  V30 20 1 26 14
M  V30 21 1 26 17
M  V30 22 2 27 23
M  V30 23 1 27 25
M  V30 24 2 28 15
M  V30 25 1 29 6
M  V30 26 1 29 9
M  V30 27 1 29 19
M  V30 28 1 30 5
M  V30 29 1 31 8
M  V30 30 1 32 12
M  V30 31 1 32 15
M  V30 32 1 33 8
M  V30 33 1 33 18
M  V30 34 1 34 2
M  V30 35 1 34 31
M  V30 36 1 35 13
M  V30 37 1 35 16
M  V30 38 1 36 2
M  V30 39 1 37 3
M  V30 40 1 38 3
M  V30 41 1 5 39 CFG=1
M  V30 42 1 40 6
M  V30 43 1 41 6
M  V30 44 1 42 8
M  V30 45 1 43 8
M  V30 46 1 44 10
M  V30 47 1 45 10
M  V30 48 1 46 11
M  V30 49 1 47 11
M  V30 50 1 12 48 CFG=1
M  V30 51 1 49 13
M  V30 52 1 50 13
M  V30 53 1 51 14
M  V30 54 1 16 52 CFG=3
M  V30 55 1 53 18
M  V30 56 1 54 18
M  V30 57 1 55 20
M  V30 58 1 56 20
M  V30 59 1 57 21
M  V30 60 1 58 22
M  V30 61 1 59 23
M  V30 62 1 24 60 CFG=3
M  V30 63 1 61 25
M  V30 64 1 62 25
M  V30 65 1 26 63 CFG=3
M  V30 66 1 64 27
M  V30 67 1 29 65 CFG=3
M  V30 68 1 66 30
M  V30 69 1 67 31
M  V30 70 1 68 31
M  V30 71 1 69 32
M  V30 72 1 70 33
M  V30 73 1 71 33
M  V30 74 1 72 34
M  V30 75 1 73 34
M  V30 END BOND
M  V30 END CTAB
M  END
>  <i_epik_Tot_Q>  (1) 
0

>  <i_epik_Tot_abs_Q>  (1) 
0

>  <i_i_glide_confnum>  (1) 
1883

>  <i_i_glide_lignum>  (1) 
3

>  <i_i_glide_posenum>  (1) 
32

>  <i_i_glide_rotatable_bonds>  (1) 
17

>  <i_lp_mmshare_version>  (1) 
72125

>  <i_m_source_file_index>  (1) 
2

>  <i_f3d_flags>  (1) 
0

>  <num_sample>  (1) 
100

>  <b_lp_Chiralities_Consistent>  (1) 
1

>  <r_epik_Charging_Adjusted_Penalty>  (1) 
0

>  <r_epik_Ionization_Penalty>  (1) 
3.3646854675809213e-05

>  <r_epik_Ionization_Penalty_Charging>  (1) 
0

>  <r_epik_Ionization_Penalty_Neutral>  (1) 
3.3646854675809213e-05

>  <r_epik_State_Penalty>  (1) 
-0

>  <r_glide_ring_energy>  (1) 
0.00077298911874713633

>  <r_i_docking_score>  (1) 
-5.6386659808637027

>  <r_i_glide_ecoul>  (1) 
-6.8335666757255291

>  <r_i_glide_eff_state_penalty>  (1) 
-0

>  <r_i_glide_einternal>  (1) 
18.121818437077653

>  <r_i_glide_emodel>  (1) 
-41.079142461169965

>  <r_i_glide_emodel_strain>  (1) 
3.5053020797560492

>  <r_i_glide_energy>  (1) 
-40.056482570024194

>  <r_i_glide_erotb>  (1) 
0.89639897310018468

>  <r_i_glide_esite>  (1) 
0

>  <r_i_glide_evdw>  (1) 
-33.222915894298666

>  <r_i_glide_gscore>  (1) 
-5.6386659808637027

>  <r_i_glide_gscore_strain>  (1) 
0

>  <r_i_glide_hbond>  (1) 
-0.43868047586276837

>  <r_i_glide_ligand_efficiency>  (1) 
-0.16110474231039151

>  <r_i_glide_ligand_efficiency_ln>  (1) 
-1.2378123262484775

>  <r_i_glide_ligand_efficiency_sa>  (1) 
-0.52698429498313604

>  <r_i_glide_lipo>  (1) 
-2.4201237921437193

>  <r_i_glide_metal>  (1) 
-0

>  <r_i_glide_rewards>  (1) 
-0.99007988988363793

>  <r_lp_Energy>  (1) 
36.910070999999995

>  <r_lp_tautomer_probability>  (1) 
1

>  <s_epik_Chemistry_Notes>  (1) 
This compound has an imine and may undergo hydrolysis. This compound contains an acetal/aminal-like group ( X-CH(R)-Y where X, Y are N, S, or O) that may be acid/base labile, releasing an aldehyde.

>  <s_epik_cmdline>  (1) 
J2VwaWtfcHl0aG9uJywgJy1waHQnLCAnMS4wJywgJy1waCcsICc3LjQnLCAnLXRuJywgJzgnLCAnLW1hJywgJzUwMCcsICctaW1hZScsICc8aW5maWxlLm1hZT4nLCAnLW9tYWUnLCAnPG91dGZpbGUubWFlPic=

>  <s_epik_input>  (1) 
W0NIMl0xW0NIMl1bQ0BIXShGKUMoRik9TltDQEBIXShbQ0gyXTIpQzEyW0NAQEhdKFtPSF0pW05IXUMoPU8pW0NASF0oT1tDSDJdW0NIMl0vW0NIXT1bQ0hdL1tDSDJdW09IXSlbQ0BASF0oW09IXSlbQ0gyXVtDQEBIXShbT0hdKUMzPVtDSF1bQ0gyXVtDSDJdW0NIMl1bQ0gyXVtDSDJdMw==

>  <s_glide_docking_method>  (1) 
confgen

>  <s_i_glide_gridfile>  (1) 
gpcr_drd2_6luq_protein_autoprepared_prepared

>  <s_lp_Force_Field>  (1) 
S-OPLS

>  <s_lp_Variant>  (1) 
DiffSBDD_1-2

>  <s_m_source_file>  (1) 
generated_generic_title2_ligand_DiffSBDD_2026-06-23_prepared.sdf

>  <GenAI_Model>  (1) 
DiffSBDD

>  <Protein>  (1) 
generic_title2

$$$$
DiffSBDD_90
     RDKit          3D

  0  0  0  0  0  0  0  0  0  0999 V3000
M  V30 BEGIN CTAB
M  V30 COUNTS 80 84 0 0 1
M  V30 BEGIN ATOM
M  V30 1 C 8.713265 4.172055 -11.532628 0
M  V30 2 C 8.270707 5.611591 -11.293947 0 CFG=1
M  V30 3 C 10.417175 7.349474 -8.924530 0
M  V30 4 C 11.032110 4.183413 -17.222981 0 CFG=2
M  V30 5 C 10.433338 7.112172 -11.097938 0
M  V30 6 C 10.877116 7.823361 -7.642161 0 CFG=2
M  V30 7 C 7.975158 5.334654 -15.096428 0 CFG=2
M  V30 8 O 8.175480 2.939657 -13.369581 0 CHG=-1
M  V30 9 C 8.893349 3.982668 -13.048135 0 CFG=1
M  V30 10 C 12.821760 5.936595 -17.993040 0
M  V30 11 O 15.775409 3.138889 -16.265328 0
M  V30 12 C 9.338702 6.412259 -10.616611 0
M  V30 13 C 7.702697 7.572800 -13.053886 0 CFG=2
M  V30 14 O 15.006358 5.221075 -15.985229 0 CHG=-1
M  V30 15 O 10.621763 4.411779 -18.447393 0 CHG=-1
M  V30 16 C 8.760644 4.376488 -16.070987 0 CFG=2
M  V30 17 N 10.088724 4.978255 -16.411313 0 CHG=1
M  V30 18 N 8.106440 5.053161 -13.638114 0 CFG=1 CHG=1
M  V30 19 C 14.256946 1.591775 -18.154800 0
M  V30 20 C 7.972281 3.950197 -17.334304 0
M  V30 21 O 7.775419 8.494017 -11.985149 0
M  V30 22 O 7.927046 5.006080 -18.268009 0
M  V30 23 O 5.567785 7.590004 -15.064416 0
M  V30 24 C 6.461005 6.716184 -12.997120 0 CFG=1
M  V30 25 C 14.922373 4.040912 -16.391195 0
M  V30 26 C 6.446403 5.374913 -15.260918 0
M  V30 27 N 11.036977 7.656489 -9.998297 0
M  V30 28 O 15.375241 1.816737 -18.615527 0
M  V30 29 C 12.160983 8.556117 -8.257528 0
M  V30 30 N 9.375629 6.591073 -9.249194 0 CHG=1
M  V30 31 C 12.490184 4.745439 -17.049195 0 CFG=2
M  V30 32 O 11.560546 7.608658 -4.590983 0
M  V30 33 O 11.233158 6.773989 -6.753624 0
M  V30 34 C 10.730179 6.902452 -5.459873 0
M  V30 35 C 13.734986 0.158545 -18.074762 0
M  V30 36 C 13.590194 3.660197 -17.107298 0
M  V30 37 C 5.749908 6.398640 -14.329152 0 CFG=2
M  V30 38 C 11.581448 9.017443 -4.756335 0
M  V30 39 N 13.347006 2.531280 -17.695899 0
M  V30 40 C 12.192391 8.478889 -9.861101 0
M  V30 41 C 7.833935 6.120841 -12.655181 0 CFG=1
M  V30 42 H 9.579905 3.860091 -10.950333 0
M  V30 43 H 7.869735 3.590305 -11.181392 0
M  V30 44 H 7.397067 5.610761 -10.639678 0
M  V30 45 H 10.999633 3.185935 -16.784983 0
M  V30 46 H 10.804426 7.255315 -12.101196 0
M  V30 47 H 10.123888 8.519967 -7.272000 0
M  V30 48 H 8.336159 6.333644 -15.314927 0
M  V30 49 H 9.935080 4.149557 -13.300769 0
M  V30 50 H 13.763214 6.424634 -17.743815 0
M  V30 51 H 12.902273 5.600488 -19.028275 0
M  V30 52 H 12.045509 6.700763 -17.951633 0
M  V30 53 H 8.007354 7.978662 -14.006770 0
M  V30 54 H 8.975308 3.433244 -15.590073 0
M  V30 55 H 9.940284 5.821239 -16.944213 0
M  V30 56 H 6.975370 3.589146 -17.094088 0
M  V30 57 H 8.459921 3.099878 -17.815292 0
M  V30 58 H 7.374677 8.129533 -11.199980 0
M  V30 59 H 8.806751 5.010636 -18.657635 0
M  V30 60 H 4.996346 7.422800 -15.799782 0
M  V30 61 H 5.780082 6.924342 -12.173088 0
M  V30 62 H 6.154205 5.568353 -16.293648 0
M  V30 63 H 6.061122 4.384564 -15.018010 0
M  V30 64 H 12.175315 9.590089 -7.926351 0
M  V30 65 H 13.066437 8.095547 -7.862611 0
M  V30 66 H 12.527826 5.132048 -16.029541 0
M  V30 67 H 9.708748 7.285157 -5.454065 0
M  V30 68 H 10.694020 5.893726 -5.054635 0
M  V30 69 H 13.199372 -0.011755 -17.141742 0
M  V30 70 H 13.052691 -0.035641 -18.902172 0
M  V30 71 H 14.556064 -0.556550 -18.132536 0
M  V30 72 H 4.771407 5.989633 -14.082512 0
M  V30 73 H 12.067902 9.472290 -3.892785 0
M  V30 74 H 12.156073 9.301644 -5.634589 0
M  V30 75 H 10.577964 9.437740 -4.835856 0
M  V30 76 H 13.075150 7.990222 -10.270207 0
M  V30 77 H 12.022480 9.442290 -10.337711 0
M  V30 78 H 8.697875 6.222473 -8.591775 0
M  V30 79 H 10.569874 5.196661 -15.551617 0
M  V30 80 H 7.277645 4.482909 -13.539190 0
M  V30 END ATOM
M  V30 BEGIN BOND
M  V30 1 1 2 1
M  V30 2 1 6 3
M  V30 3 1 9 1
M  V30 4 1 9 8
M  V30 5 1 12 2
M  V30 6 2 12 5
M  V30 7 1 15 4
M  V30 8 1 16 7
M  V30 9 1 17 4
M  V30 10 1 17 16
M  V30 11 1 18 7
M  V30 12 1 18 9
M  V30 13 1 20 16
M  V30 14 1 21 13
M  V30 15 1 22 20
M  V30 16 1 24 13
M  V30 17 2 25 11
M  V30 18 1 25 14
M  V30 19 1 26 7
M  V30 20 1 27 3
M  V30 21 1 27 5
M  V30 22 2 28 19
M  V30 23 1 29 6
M  V30 24 2 30 3
M  V30 25 1 30 12
M  V30 26 1 31 4
M  V30 27 1 31 10
M  V30 28 1 33 6
M  V30 29 1 34 32
M  V30 30 1 34 33
M  V30 31 1 35 19
M  V30 32 1 36 25
M  V30 33 1 36 31
M  V30 34 1 37 23
M  V30 35 1 37 24
M  V30 36 1 37 26
M  V30 37 1 38 32
M  V30 38 1 39 19
M  V30 39 2 39 36
M  V30 40 1 40 27
M  V30 41 1 40 29
M  V30 42 1 41 2 CFG=1
M  V30 43 1 41 13
M  V30 44 1 41 18
M  V30 45 1 41 24
M  V30 46 1 42 1
M  V30 47 1 43 1
M  V30 48 1 2 44 CFG=1
M  V30 49 1 4 45 CFG=1
M  V30 50 1 46 5
M  V30 51 1 6 47 CFG=1
M  V30 52 1 7 48 CFG=1
M  V30 53 1 9 49 CFG=1
M  V30 54 1 50 10
M  V30 55 1 51 10
M  V30 56 1 52 10
M  V30 57 1 13 53 CFG=3
M  V30 58 1 16 54 CFG=1
M  V30 59 1 55 17
M  V30 60 1 56 20
M  V30 61 1 57 20
M  V30 62 1 58 21
M  V30 63 1 59 22
M  V30 64 1 60 23
M  V30 65 1 24 61 CFG=1
M  V30 66 1 62 26
M  V30 67 1 63 26
M  V30 68 1 64 29
M  V30 69 1 65 29
M  V30 70 1 31 66 CFG=1
M  V30 71 1 67 34
M  V30 72 1 68 34
M  V30 73 1 69 35
M  V30 74 1 70 35
M  V30 75 1 71 35
M  V30 76 1 37 72 CFG=1
M  V30 77 1 73 38
M  V30 78 1 74 38
M  V30 79 1 75 38
M  V30 80 1 76 40
M  V30 81 1 77 40
M  V30 82 1 78 30
M  V30 83 1 79 17
M  V30 84 1 18 80 CFG=1
M  V30 END BOND
M  V30 END CTAB
M  END
>  <i_epik_Tot_Q>  (1) 
0

>  <i_epik_Tot_abs_Q>  (1) 
6

>  <i_i_glide_confnum>  (1) 
1284

>  <i_i_glide_lignum>  (1) 
168

>  <i_i_glide_posenum>  (1) 
273

>  <i_i_glide_rotatable_bonds>  (1) 
15

>  <i_lp_mmshare_version>  (1) 
72125

>  <i_m_source_file_index>  (1) 
91

>  <i_f3d_flags>  (1) 
0

>  <num_sample>  (1) 
100

>  <b_lp_Chiralities_Consistent>  (1) 
1

>  <r_epik_Charging_Adjusted_Penalty>  (1) 
0.35079833336250127

>  <r_epik_Ionization_Penalty>  (1) 
1.4702178244609605

>  <r_epik_Ionization_Penalty_Charging>  (1) 
0.099885809697688246

>  <r_epik_Ionization_Penalty_Neutral>  (1) 
1.3703320147632723

>  <r_epik_State_Penalty>  (1) 
0.25091252366481304

>  <r_glide_ring_energy>  (1) 
0

>  <r_i_docking_score>  (1) 
-5.6385868731398512

>  <r_i_glide_ecoul>  (1) 
-10.402551857694512

>  <r_i_glide_eff_state_penalty>  (1) 
0.25091252366481304

>  <r_i_glide_einternal>  (1) 
18.998045213527707

>  <r_i_glide_emodel>  (1) 
-46.595080042195882

>  <r_i_glide_emodel_strain>  (1) 
6.8390594573348835

>  <r_i_glide_energy>  (1) 
-48.874296867397909

>  <r_i_glide_erotb>  (1) 
0.57888693115673628

>  <r_i_glide_esite>  (1) 
-0.13939888545511742

>  <r_i_glide_evdw>  (1) 
-38.471745009703397

>  <r_i_glide_gscore>  (1) 
-5.8894993968046645

>  <r_i_glide_gscore_strain>  (1) 
0.70976486433372088

>  <r_i_glide_hbond>  (1) 
-0.22279356904803377

>  <r_i_glide_ligand_efficiency>  (1) 
-0.13752650910097197

>  <r_i_glide_ligand_efficiency_ln>  (1) 
-1.1962449694934454

>  <r_i_glide_ligand_efficiency_sa>  (1) 
-0.47422127969162409

>  <r_i_glide_lipo>  (1) 
-2.0183316707923633

>  <r_i_glide_metal>  (1) 
-0

>  <r_i_glide_rewards>  (1) 
-1.313657037860261

>  <r_lp_Energy>  (1) 
72.675405999999995

>  <r_lp_tautomer_probability>  (1) 
1

>  <s_epik_Chemistry_Notes>  (1) 
This compound has an imine and may undergo hydrolysis. This compound contains an acetal/aminal-like group ( X-CH(R)-Y where X, Y are N, S, or O) that may be acid/base labile, releasing an aldehyde.

>  <s_epik_cmdline>  (1) 
J2VwaWtfcHl0aG9uJywgJy1waHQnLCAnMS4wJywgJy1waCcsICc3LjQnLCAnLXRuJywgJzgnLCAnLW1hJywgJzUwMCcsICctaW1hZScsICc8aW5maWxlLm1hZT4nLCAnLW9tYWUnLCAnPG91dGZpbGUubWFlPic=

>  <s_epik_input>  (1) 
W0NIM11PW0NIMl1PW0NASF0xW0NIMl1bQ0gyXW4oYzEyKVtjSF1jKG4yKVtDQEBIXTNbQ0gyXVtDQEBIXShbT0hdKU4oW0NAQF0zNDUpW0NASF0oW0NIMl1bQ0BIXShbT0hdKVtDQEBIXTVbQ0BIXTRbT0hdKVtDQEBIXShbQ0gyXVtPSF0pW05IXVtDQEBIXShbT0hdKVtDQEhdKFtDSDNdKUMoXEMoPU8pW09IXSk9TlxDKD1PKVtDSDNd

>  <s_glide_docking_method>  (1) 
confgen

>  <s_i_glide_gridfile>  (1) 
gpcr_drd2_6luq_protein_autoprepared_prepared

>  <s_lp_Force_Field>  (1) 
S-OPLS

>  <s_lp_Variant>  (1) 
DiffSBDD_90-3

>  <s_m_source_file>  (1) 
generated_generic_title2_ligand_DiffSBDD_2026-06-23_prepared.sdf

>  <GenAI_Model>  (1) 
DiffSBDD

>  <Protein>  (1) 
generic_title2

$$$$
DiffSBDD_95
     RDKit          3D

  0  0  0  0  0  0  0  0  0  0999 V3000
M  V30 BEGIN CTAB
M  V30 COUNTS 66 71 0 0 1
M  V30 BEGIN ATOM
M  V30 1 C 4.565250 6.449910 -22.335367 0
M  V30 2 C 7.733364 7.524561 -22.952591 0
M  V30 3 C 7.380864 9.040538 -22.877230 0
M  V30 4 C 5.142402 7.371951 -21.270888 0 CFG=1
M  V30 5 C 6.210137 4.621709 -13.172669 0
M  V30 6 O 9.375405 3.910252 -10.936896 0
M  V30 7 N 7.898439 5.268426 -11.931819 0
M  V30 8 C 7.250731 2.477101 -13.944085 0
M  V30 9 C 6.557248 7.353596 -20.738878 0 CFG=2
M  V30 10 N 6.792551 5.800412 -15.681458 0 CHG=1
M  V30 11 C 10.129257 7.041335 -7.852509 0
M  V30 12 C 7.437038 4.494467 -15.448548 0
M  V30 13 S 4.806549 9.129040 -21.559799 0
M  V30 14 C 9.315092 6.076869 -9.944528 0
M  V30 15 C 6.574719 6.094644 -17.109011 0
M  V30 16 C 7.558619 6.699600 -21.650925 0
M  V30 17 C 5.438755 6.815878 -19.884000 0 CFG=1
M  V30 18 C 5.047708 7.590213 -18.638259 0 CFG=1
M  V30 19 C 10.012035 7.065115 -10.670745 0
M  V30 20 C 4.152938 7.019129 -17.564952 0
M  V30 21 C 8.516333 5.005759 -10.665982 0 CFG=2
M  V30 22 C 6.584055 5.243781 -12.109188 0
M  V30 23 N 9.375124 3.593134 -12.376135 0
M  V30 24 C 8.568326 4.599544 -13.032552 0 CFG=1
M  V30 25 C 7.340947 4.018251 -13.984980 0 CFG=1
M  V30 26 C 5.876626 9.409664 -23.025483 0
M  V30 27 C 9.375450 6.067737 -8.533935 0
M  V30 28 C 5.616323 7.249500 -17.277265 0 CFG=1
M  V30 29 C 10.826808 8.024616 -8.577705 0
M  V30 30 C 10.769110 8.036304 -9.984863 0
M  V30 31 H 4.847481 5.413890 -22.148107 0
M  V30 32 H 3.477229 6.510702 -22.332164 0
M  V30 33 H 4.911217 6.721516 -23.330928 0
M  V30 34 H 8.771212 7.423726 -23.272485 0
M  V30 35 H 7.151695 7.069211 -23.754171 0
M  V30 36 H 7.814891 9.508274 -21.992999 0
M  V30 37 H 7.894468 9.518395 -23.713238 0
M  V30 38 H 5.178216 4.489889 -13.465481 0
M  V30 39 H 8.132330 2.016767 -14.391596 0
M  V30 40 H 7.170577 2.107517 -12.920595 0
M  V30 41 H 6.378971 2.107143 -14.483075 0
M  V30 42 H 6.964947 8.268632 -20.312576 0
M  V30 43 H 5.889637 5.776844 -15.229639 0
M  V30 44 H 10.172906 7.031974 -6.773029 0
M  V30 45 H 8.479185 4.536446 -15.768400 0
M  V30 46 H 6.965195 3.754214 -16.094412 0
M  V30 47 H 7.524975 6.338478 -17.585544 0
M  V30 48 H 6.170676 5.219064 -17.618396 0
M  V30 49 H 8.507798 6.643709 -21.117502 0
M  V30 50 H 7.265262 5.673541 -21.874470 0
M  V30 51 H 5.397739 5.732579 -19.794436 0
M  V30 52 H 4.975249 8.661582 -18.797762 0
M  V30 53 H 9.971660 7.074393 -11.749508 0
M  V30 54 H 3.827326 5.990377 -17.650667 0
M  V30 55 H 3.433205 7.693460 -17.103697 0
M  V30 56 H 7.746521 4.650524 -9.978432 0
M  V30 57 H 5.962251 5.710125 -11.356353 0
M  V30 58 H 10.342335 3.694494 -12.664452 0
M  V30 59 H 9.203473 5.310847 -13.561493 0
M  V30 60 H 5.803418 10.471654 -23.259382 0
M  V30 61 H 5.449783 8.891683 -23.883558 0
M  V30 62 H 8.843473 5.311338 -7.975975 0
M  V30 63 H 5.855555 8.112110 -16.656378 0
M  V30 64 H 11.406705 8.770367 -8.055260 0
M  V30 65 H 11.305910 8.790075 -10.537018 0
M  V30 66 H 7.340344 6.532824 -15.252455 0
M  V30 END ATOM
M  V30 BEGIN BOND
M  V30 1 1 3 2
M  V30 2 1 4 1 CFG=3
M  V30 3 1 9 4
M  V30 4 1 12 10
M  V30 5 1 13 4
M  V30 6 1 15 10
M  V30 7 1 16 2
M  V30 8 1 16 9
M  V30 9 1 17 4
M  V30 10 1 17 9
M  V30 11 1 18 17
M  V30 12 1 19 14
M  V30 13 1 20 18
M  V30 14 1 21 6
M  V30 15 1 21 7
M  V30 16 1 21 14
M  V30 17 2 22 5
M  V30 18 1 22 7
M  V30 19 1 23 6
M  V30 20 1 24 7
M  V30 21 1 24 23
M  V30 22 1 25 5
M  V30 23 1 25 8 CFG=3
M  V30 24 1 25 12
M  V30 25 1 25 24
M  V30 26 1 26 3
M  V30 27 1 26 13
M  V30 28 1 27 11
M  V30 29 2 27 14
M  V30 30 1 28 15
M  V30 31 1 28 18
M  V30 32 1 28 20
M  V30 33 2 29 11
M  V30 34 2 30 19
M  V30 35 1 30 29
M  V30 36 1 31 1
M  V30 37 1 32 1
M  V30 38 1 33 1
M  V30 39 1 34 2
M  V30 40 1 35 2
M  V30 41 1 36 3
M  V30 42 1 37 3
M  V30 43 1 38 5
M  V30 44 1 39 8
M  V30 45 1 40 8
M  V30 46 1 41 8
M  V30 47 1 9 42 CFG=1
M  V30 48 1 43 10
M  V30 49 1 44 11
M  V30 50 1 45 12
M  V30 51 1 46 12
M  V30 52 1 47 15
M  V30 53 1 48 15
M  V30 54 1 49 16
M  V30 55 1 50 16
M  V30 56 1 17 51 CFG=1
M  V30 57 1 18 52 CFG=3
M  V30 58 1 53 19
M  V30 59 1 54 20
M  V30 60 1 55 20
M  V30 61 1 21 56 CFG=1
M  V30 62 1 57 22
M  V30 63 1 58 23
M  V30 64 1 24 59 CFG=3
M  V30 65 1 60 26
M  V30 66 1 61 26
M  V30 67 1 62 27
M  V30 68 1 28 63 CFG=1
M  V30 69 1 64 29
M  V30 70 1 65 30
M  V30 71 1 66 10
M  V30 END BOND
M  V30 END CTAB
M  END
>  <i_epik_Tot_Q>  (1) 
1

>  <i_epik_Tot_abs_Q>  (1) 
1

>  <i_i_glide_confnum>  (1) 
20

>  <i_i_glide_lignum>  (1) 
183

>  <i_i_glide_posenum>  (1) 
198

>  <i_i_glide_rotatable_bonds>  (1) 
6

>  <i_lp_mmshare_version>  (1) 
72125

>  <i_m_source_file_index>  (1) 
96

>  <i_f3d_flags>  (1) 
0

>  <num_sample>  (1) 
100

>  <b_lp_Chiralities_Consistent>  (1) 
1

>  <r_epik_Charging_Adjusted_Penalty>  (1) 
0.0020531937962160901

>  <r_epik_Ionization_Penalty>  (1) 
0.0020536898614070998

>  <r_epik_Ionization_Penalty_Charging>  (1) 
0.0020531937962160901

>  <r_epik_Ionization_Penalty_Neutral>  (1) 
4.9606519100973171e-07

>  <r_epik_State_Penalty>  (1) 
-0

>  <r_glide_ring_energy>  (1) 
0

>  <r_i_docking_score>  (1) 
-5.6352733980819449

>  <r_i_glide_ecoul>  (1) 
-1.725861251006747

>  <r_i_glide_eff_state_penalty>  (1) 
-0

>  <r_i_glide_einternal>  (1) 
4.7932156682317206

>  <r_i_glide_emodel>  (1) 
-50.132071778200064

>  <r_i_glide_emodel_strain>  (1) 
1.9072063539187809

>  <r_i_glide_energy>  (1) 
-42.37539030375256

>  <r_i_glide_erotb>  (1) 
0.65422182105081872

>  <r_i_glide_esite>  (1) 
-0.02999891598256349

>  <r_i_glide_evdw>  (1) 
-40.649529052745812

>  <r_i_glide_gscore>  (1) 
-5.6352733980819449

>  <r_i_glide_gscore_strain>  (1) 
0

>  <r_i_glide_hbond>  (1) 
-0.24965609857881901

>  <r_i_glide_ligand_efficiency>  (1) 
-0.1878424466027315

>  <r_i_glide_ligand_efficiency_ln>  (1) 
-1.280395517265742

>  <r_i_glide_ligand_efficiency_sa>  (1) 
-0.58367015608190942

>  <r_i_glide_lipo>  (1) 
-2.1398006092800532

>  <r_i_glide_metal>  (1) 
-0

>  <r_i_glide_rewards>  (1) 
-1.5786839550030252

>  <r_lp_Energy>  (1) 
45.618919999999996

>  <r_lp_tautomer_probability>  (1) 
1

>  <s_epik_Chemistry_Notes>  (1) 
This compound has an imine and may undergo hydrolysis. This compound contains an acetal/aminal-like group ( X-CH(R)-Y where X, Y are N, S, or O) that may be acid/base labile, releasing an aldehyde. This compound has a N-S or N-O group and may undergo hydrolysis at high or low pH.

>  <s_epik_cmdline>  (1) 
J2VwaWtfcHl0aG9uJywgJy1waHQnLCAnMS4wJywgJy1waCcsICc3LjQnLCAnLXRuJywgJzgnLCAnLW1hJywgJzUwMCcsICctaW1hZScsICc8aW5maWxlLm1hZT4nLCAnLW9tYWUnLCAnPG91dGZpbGUubWFlPic=

>  <s_epik_input>  (1) 
UzFbQ0gyXVtDSDJdW0NIMl1bQ0gyXVtDQEBIXShbQ0BdMTJbQ0gzXSlbQ0BIXTJbQ0BIXTNbQ0gyXVtDQEhdM1tDSDJdW05IXVtDSDJdW0NAXShbQ0gzXSkoW0NIXT1bQ0hdNClbQ0BASF0oTjQ1KVtOSF1PW0NASF01YzZbY0hdW2NIXVtjSF1bY0hdW2NIXTY=

>  <s_glide_docking_method>  (1) 
confgen

>  <s_i_glide_gridfile>  (1) 
gpcr_drd2_6luq_protein_autoprepared_prepared

>  <s_lp_Force_Field>  (1) 
S-OPLS

>  <s_lp_Variant>  (1) 
DiffSBDD_95-1

>  <s_m_source_file>  (1) 
generated_generic_title2_ligand_DiffSBDD_2026-06-23_prepared.sdf

>  <GenAI_Model>  (1) 
DiffSBDD

>  <Protein>  (1) 
generic_title2

$$$$
DiffSBDD_94
     RDKit          3D

  0  0  0  0  0  0  0  0  0  0999 V3000
M  V30 BEGIN CTAB
M  V30 COUNTS 65 69 0 0 1
M  V30 BEGIN ATOM
M  V30 1 C 10.457282 8.253883 -10.163361 0
M  V30 2 C 7.225543 5.217093 -12.231424 0
M  V30 3 O 8.687310 -1.209798 -16.385031 0
M  V30 4 C 10.133390 7.294409 -11.331493 0
M  V30 5 C 7.684986 -0.258484 -16.075680 0 CFG=1
M  V30 6 N 11.300839 6.543090 -3.984308 0
M  V30 7 C 11.775445 6.848749 -2.747943 0
M  V30 8 C 10.659567 7.492254 -8.861921 0 CFG=2
M  V30 9 C 12.074806 8.606072 -4.767939 0
M  V30 10 C 7.732268 1.006250 -16.913966 0 CFG=1
M  V30 11 Cl 9.458157 5.990269 -7.023643 0
M  V30 12 C 6.740926 -0.096025 -17.239421 0
M  V30 13 C 12.327527 9.488326 -5.997674 0 CFG=2
M  V30 14 C 8.877589 3.905382 -12.285942 0
M  V30 15 C 8.751634 5.432745 -12.209665 0
M  V30 16 C 9.376323 6.743094 -8.600699 0 CFG=2
M  V30 17 C 7.526489 2.372192 -14.783203 0 CFG=1
M  V30 18 C 11.451012 10.716928 -5.981967 0
M  V30 19 C 12.422280 8.060962 -2.463244 0
M  V30 20 O 8.281626 4.790179 -9.451915 0
M  V30 21 N 11.375711 7.455689 -4.974186 0
M  V30 22 N 7.473783 3.862109 -12.729445 0
M  V30 23 C 7.272413 2.317951 -16.304072 0
M  V30 24 N 9.267418 6.139019 -11.002382 0
M  V30 25 F 8.823189 1.145870 -17.754136 0
M  V30 26 C 7.232322 3.766678 -14.173960 0
M  V30 27 C 12.591274 8.964336 -3.513492 0
M  V30 28 C 7.268256 -0.215161 -14.603467 0
M  V30 29 O 5.894578 1.312134 -13.343382 0
M  V30 30 C 8.939864 5.789145 -9.724044 0
M  V30 31 C 12.244185 8.768917 -7.382625 0
M  V30 32 C 6.804190 1.170636 -14.157492 0
M  V30 33 N 10.860602 8.387032 -7.708435 0 CHG=1
M  V30 34 H 9.620090 8.939827 -10.024901 0
M  V30 35 H 11.338282 8.854414 -10.384940 0
M  V30 36 H 6.669232 5.823193 -12.947665 0
M  V30 37 H 6.724104 5.157909 -11.265812 0
M  V30 38 H 8.403544 -2.045643 -16.016903 0
M  V30 39 H 11.067432 6.887602 -11.722343 0
M  V30 40 H 9.690198 7.871215 -12.145340 0
M  V30 41 H 11.636403 6.104909 -1.978006 0
M  V30 42 H 11.489087 6.790200 -8.940201 0
M  V30 43 H 6.925419 -0.683709 -18.139059 0
M  V30 44 H 5.690751 0.072378 -17.003867 0
M  V30 45 H 13.357400 9.829817 -5.895761 0
M  V30 46 H 8.978681 3.384067 -11.335607 0
M  V30 47 H 9.556388 3.531437 -13.049547 0
M  V30 48 H 9.088343 5.878746 -13.148546 0
M  V30 49 H 8.575676 7.451795 -8.424414 0
M  V30 50 H 8.575393 2.173114 -14.619350 0
M  V30 51 H 11.420018 11.190224 -5.005232 0
M  V30 52 H 11.775473 11.434715 -6.738058 0
M  V30 53 H 10.449069 10.391265 -6.191130 0
M  V30 54 H 12.798595 8.276137 -1.474309 0
M  V30 55 H 6.200156 2.390247 -16.493200 0
M  V30 56 H 7.752883 3.148281 -16.821153 0
M  V30 57 H 7.824912 4.519575 -14.694653 0
M  V30 58 H 6.184437 4.010865 -14.357941 0
M  V30 59 H 13.123950 9.891875 -3.370712 0
M  V30 60 H 6.483992 -0.947398 -14.414037 0
M  V30 61 H 8.126436 -0.467330 -13.985766 0
M  V30 62 H 12.884427 7.890723 -7.418081 0
M  V30 63 H 12.575598 9.398773 -8.200019 0
M  V30 64 H 10.277314 9.204500 -7.809773 0
M  V30 65 H 10.530533 7.865999 -6.902283 0
M  V30 END ATOM
M  V30 BEGIN BOND
M  V30 1 1 4 1
M  V30 2 1 5 3 CFG=3
M  V30 3 1 7 6
M  V30 4 1 8 1
M  V30 5 1 10 5
M  V30 6 1 12 5
M  V30 7 1 12 10
M  V30 8 1 13 9
M  V30 9 1 15 2
M  V30 10 1 15 14
M  V30 11 1 16 8
M  V30 12 1 16 11
M  V30 13 1 18 13
M  V30 14 2 19 7
M  V30 15 2 21 6
M  V30 16 1 21 9
M  V30 17 1 22 2
M  V30 18 1 22 14
M  V30 19 1 23 10
M  V30 20 1 23 17
M  V30 21 1 24 4
M  V30 22 1 24 15
M  V30 23 1 10 25 CFG=3
M  V30 24 1 26 17
M  V30 25 1 26 22
M  V30 26 2 27 9
M  V30 27 1 27 19
M  V30 28 1 28 5
M  V30 29 1 30 16
M  V30 30 2 30 20
M  V30 31 1 30 24
M  V30 32 1 31 13
M  V30 33 1 32 17
M  V30 34 1 32 28
M  V30 35 2 32 29
M  V30 36 1 33 8
M  V30 37 1 33 31
M  V30 38 1 34 1
M  V30 39 1 35 1
M  V30 40 1 36 2
M  V30 41 1 37 2
M  V30 42 1 38 3
M  V30 43 1 39 4
M  V30 44 1 40 4
M  V30 45 1 41 7
M  V30 46 1 8 42 CFG=3
M  V30 47 1 43 12
M  V30 48 1 44 12
M  V30 49 1 13 45 CFG=1
M  V30 50 1 46 14
M  V30 51 1 47 14
M  V30 52 1 48 15
M  V30 53 1 16 49 CFG=1
M  V30 54 1 17 50 CFG=3
M  V30 55 1 51 18
M  V30 56 1 52 18
M  V30 57 1 53 18
M  V30 58 1 54 19
M  V30 59 1 55 23
M  V30 60 1 56 23
M  V30 61 1 57 26
M  V30 62 1 58 26
M  V30 63 1 59 27
M  V30 64 1 60 28
M  V30 65 1 61 28
M  V30 66 1 62 31
M  V30 67 1 63 31
M  V30 68 1 64 33
M  V30 69 1 65 33
M  V30 END BOND
M  V30 END CTAB
M  END
>  <i_epik_Tot_Q>  (1) 
1

>  <i_epik_Tot_abs_Q>  (1) 
1

>  <i_i_glide_confnum>  (1) 
583

>  <i_i_glide_lignum>  (1) 
180

>  <i_i_glide_posenum>  (1) 
262

>  <i_i_glide_rotatable_bonds>  (1) 
8

>  <i_lp_mmshare_version>  (1) 
72125

>  <i_m_source_file_index>  (1) 
95

>  <i_f3d_flags>  (1) 
0

>  <num_sample>  (1) 
100

>  <b_lp_Chiralities_Consistent>  (1) 
1

>  <r_epik_Charging_Adjusted_Penalty>  (1) 
0.72185146143454548

>  <r_epik_Ionization_Penalty>  (1) 
0.57657023161056387

>  <r_epik_Ionization_Penalty_Charging>  (1) 
0.10328520629071786

>  <r_epik_Ionization_Penalty_Neutral>  (1) 
0.47328502531984601

>  <r_epik_State_Penalty>  (1) 
0.61856625514382757

>  <r_glide_ring_energy>  (1) 
0.91589954985557798

>  <r_i_docking_score>  (1) 
-5.6252143999372501

>  <r_i_glide_ecoul>  (1) 
-5.389072561139292

>  <r_i_glide_eff_state_penalty>  (1) 
0.61856625514382757

>  <r_i_glide_einternal>  (1) 
7.3354082193021526

>  <r_i_glide_emodel>  (1) 
-43.450711439840155

>  <r_i_glide_emodel_strain>  (1) 
3.9292097884368786

>  <r_i_glide_energy>  (1) 
-34.107544528089242

>  <r_i_glide_erotb>  (1) 
0.52602338862990483

>  <r_i_glide_esite>  (1) 
-0.12354623621645842

>  <r_i_glide_evdw>  (1) 
-28.718471966949949

>  <r_i_glide_gscore>  (1) 
-6.2437806550810775

>  <r_i_glide_gscore_strain>  (1) 
0

>  <r_i_glide_hbond>  (1) 
-0.32000000000000001

>  <r_i_glide_ligand_efficiency>  (1) 
-0.17046104242234092

>  <r_i_glide_ligand_efficiency_ln>  (1) 
-1.251018556744661

>  <r_i_glide_ligand_efficiency_sa>  (1) 
-0.54675964549653344

>  <r_i_glide_lipo>  (1) 
-2.7366165641315146

>  <r_i_glide_metal>  (1) 
-0

>  <r_i_glide_rewards>  (1) 
-1.3453567608446173

>  <r_lp_Energy>  (1) 
45.717675

>  <r_lp_tautomer_probability>  (1) 
0.99999998000000001

>  <s_epik_cmdline>  (1) 
J2VwaWtfcHl0aG9uJywgJy1waHQnLCAnMS4wJywgJy1waCcsICc3LjQnLCAnLXRuJywgJzgnLCAnLW1hJywgJzUwMCcsICctaW1hZScsICc8aW5maWxlLm1hZT4nLCAnLW9tYWUnLCAnPG91dGZpbGUubWFlPic=

>  <s_epik_input>  (1) 
W2NIXTFbY0hdW2NIXW5uYzFbQ0BIXShbQ0gzXSlbQ0gyXVtOSF1bQ0BASF0yW0NIMl1bQ0gyXU4oQyg9TylbQ0BIXTJDbClbQ0hdM1tDSDJdTihbQ0gyXTMpW0NIMl1bQ0BASF0oQyg9TylbQ0gyXTQpW0NIMl1bQ0BdKEYpKFtDSDJdNSlbQ0BAXTQ1W09IXQ==

>  <s_glide_docking_method>  (1) 
confgen

>  <s_i_glide_gridfile>  (1) 
gpcr_drd2_6luq_protein_autoprepared_prepared

>  <s_lp_Force_Field>  (1) 
S-OPLS

>  <s_lp_Variant>  (1) 
DiffSBDD_94-3

>  <s_m_source_file>  (1) 
generated_generic_title2_ligand_DiffSBDD_2026-06-23_prepared.sdf

>  <GenAI_Model>  (1) 
DiffSBDD

>  <Protein>  (1) 
generic_title2

$$$$
DiffSBDD_14
     RDKit          3D

  0  0  0  0  0  0  0  0  0  0999 V3000
M  V30 BEGIN CTAB
M  V30 COUNTS 46 47 0 0 1
M  V30 BEGIN ATOM
M  V30 1 N 9.775234 6.532305 -11.113693 0
M  V30 2 C 7.520587 5.340751 -14.788286 0
M  V30 3 N 8.897975 5.190228 -14.326992 0
M  V30 4 C 10.975383 9.190200 -5.951027 0
M  V30 5 C 8.894760 6.486058 -12.186994 0
M  V30 6 C 6.622641 4.797711 -13.662738 0
M  V30 7 C 10.630106 7.754837 -9.162925 0
M  V30 8 C 7.869248 2.772452 -12.832277 0
M  V30 9 C 11.616440 9.056331 -4.703287 0
M  V30 10 C 10.490020 8.047292 -6.622868 0
M  V30 11 C 11.775410 7.772257 -4.121475 0
M  V30 12 C 11.299088 6.635695 -4.808137 0
M  V30 13 C 10.657810 6.775465 -6.051111 0
M  V30 14 C 9.775464 7.590231 -10.404291 0
M  V30 15 O 8.175286 7.394880 -12.619774 0
M  V30 16 C 6.990488 4.424309 -11.160568 0
M  V30 17 C 9.775726 8.183057 -7.956196 0
M  V30 18 N 12.481043 6.443099 -2.115913 0
M  V30 19 N 12.406975 7.618962 -2.867991 0
M  V30 20 C 8.858150 5.091374 -12.861461 0 CFG=1
M  V30 21 C 7.576485 4.268973 -12.583724 0
M  V30 22 O 12.485275 8.790236 -2.105437 0
M  V30 23 H 7.301879 6.391791 -14.981961 0
M  V30 24 H 7.381159 4.794216 -15.721464 0
M  V30 25 H 9.515048 5.915566 -14.662466 0
M  V30 26 H 10.849889 10.168726 -6.384999 0
M  V30 27 H 6.010332 5.611838 -13.271887 0
M  V30 28 H 5.934824 4.030414 -14.019723 0
M  V30 29 H 11.418862 8.482676 -9.354437 0
M  V30 30 H 11.119519 6.802991 -8.951093 0
M  V30 31 H 8.175647 2.585655 -13.861748 0
M  V30 32 H 8.673883 2.412690 -12.190936 0
M  V30 33 H 6.988793 2.156368 -12.648319 0
M  V30 34 H 11.979981 9.935137 -4.193205 0
M  V30 35 H 11.418293 5.653317 -4.377376 0
M  V30 36 H 10.287435 5.901346 -6.565998 0
M  V30 37 H 9.149061 8.456105 -10.644528 0
M  V30 38 H 6.653546 5.441650 -10.956381 0
M  V30 39 H 6.127805 3.774090 -11.012370 0
M  V30 40 H 7.730570 4.171135 -10.401361 0
M  V30 41 H 8.896825 7.539487 -7.896451 0
M  V30 42 H 9.385925 9.190224 -8.088764 0
M  V30 43 H 12.111550 6.623200 -1.185102 0
M  V30 44 H 11.899918 5.728206 -2.550367 0
M  V30 45 H 9.740384 4.541422 -12.528128 0
M  V30 46 H 13.375407 9.102637 -2.183620 0
M  V30 END ATOM
M  V30 BEGIN BOND
M  V30 1 1 3 2
M  V30 2 1 5 1
M  V30 3 1 6 2
M  V30 4 2 9 4
M  V30 5 1 10 4
M  V30 6 1 11 9
M  V30 7 2 12 11
M  V30 8 2 13 10
M  V30 9 1 13 12
M  V30 10 2 14 1
M  V30 11 1 14 7
M  V30 12 2 15 5
M  V30 13 1 17 7
M  V30 14 1 17 10
M  V30 15 1 19 11
M  V30 16 1 19 18
M  V30 17 1 20 3
M  V30 18 1 20 5
M  V30 19 1 21 6
M  V30 20 1 21 8
M  V30 21 1 21 16
M  V30 22 1 21 20
M  V30 23 1 22 19
M  V30 24 1 23 2
M  V30 25 1 24 2
M  V30 26 1 25 3
M  V30 27 1 26 4
M  V30 28 1 27 6
M  V30 29 1 28 6
M  V30 30 1 29 7
M  V30 31 1 30 7
M  V30 32 1 31 8
M  V30 33 1 32 8
M  V30 34 1 33 8
M  V30 35 1 34 9
M  V30 36 1 35 12
M  V30 37 1 36 13
M  V30 38 1 37 14
M  V30 39 1 38 16
M  V30 40 1 39 16
M  V30 41 1 40 16
M  V30 42 1 41 17
M  V30 43 1 42 17
M  V30 44 1 43 18
M  V30 45 1 44 18
M  V30 46 1 20 45 CFG=1
M  V30 47 1 46 22
M  V30 END BOND
M  V30 END CTAB
M  END
>  <i_epik_Tot_Q>  (1) 
0

>  <i_epik_Tot_abs_Q>  (1) 
0

>  <i_i_glide_confnum>  (1) 
312

>  <i_i_glide_lignum>  (1) 
26

>  <i_i_glide_posenum>  (1) 
177

>  <i_i_glide_rotatable_bonds>  (1) 
7

>  <i_lp_mmshare_version>  (1) 
72125

>  <i_m_source_file_index>  (1) 
15

>  <i_f3d_flags>  (1) 
0

>  <num_sample>  (1) 
100

>  <b_lp_Chiralities_Consistent>  (1) 
1

>  <r_epik_Charging_Adjusted_Penalty>  (1) 
0.22580691505965048

>  <r_epik_Ionization_Penalty>  (1) 
0.22909364713476901

>  <r_epik_Ionization_Penalty_Charging>  (1) 
0

>  <r_epik_Ionization_Penalty_Neutral>  (1) 
0.22909364713476901

>  <r_epik_State_Penalty>  (1) 
0.22580691505965048

>  <r_glide_ring_energy>  (1) 
1.0308310200018396

>  <r_i_docking_score>  (1) 
-5.6245644386647227

>  <r_i_glide_ecoul>  (1) 
-1.8267896792430491

>  <r_i_glide_eff_state_penalty>  (1) 
0.22580691505965048

>  <r_i_glide_einternal>  (1) 
1.7922510381005043

>  <r_i_glide_emodel>  (1) 
-53.446187965274063

>  <r_i_glide_emodel_strain>  (1) 
0.015828075105510209

>  <r_i_glide_energy>  (1) 
-40.279341018492694

>  <r_i_glide_erotb>  (1) 
1.1941897600298523

>  <r_i_glide_esite>  (1) 
-0.10400908370566862

>  <r_i_glide_evdw>  (1) 
-38.452551339249645

>  <r_i_glide_gscore>  (1) 
-5.8503713537243733

>  <r_i_glide_gscore_strain>  (1) 
0

>  <r_i_glide_hbond>  (1) 
-0.054016388121657544

>  <r_i_glide_ligand_efficiency>  (1) 
-0.2556620199393056

>  <r_i_glide_ligand_efficiency_ln>  (1) 
-1.3748487097824043

>  <r_i_glide_ligand_efficiency_sa>  (1) 
-0.71637503522473611

>  <r_i_glide_lipo>  (1) 
-2.1580225935845343

>  <r_i_glide_metal>  (1) 
-0

>  <r_i_glide_rewards>  (1) 
-2.5318670294934256

>  <r_lp_Energy>  (1) 
30.755288999999998

>  <s_epik_Chemistry_Notes>  (1) 
This compound has an imine and may undergo hydrolysis. This compound has a N-S or N-O group and may undergo hydrolysis at high or low pH.

>  <s_epik_cmdline>  (1) 
J2VwaWtfcHl0aG9uJywgJy1waHQnLCAnMS4wJywgJy1waCcsICc3LjQnLCAnLXRuJywgJzgnLCAnLW1hJywgJzUwMCcsICctaW1hZScsICc8aW5maWxlLm1hZT4nLCAnLW9tYWUnLCAnPG91dGZpbGUubWFlPic=

>  <s_epik_input>  (1) 
W0NIM11DMShbQ0gzXSlbQ0gyXVtDSDJdW05IXVtDQEhdMUMoPU8pL049W0NIXS9bQ0gyXVtDSDJdYzJbY0hdW2NIXWMoW2NIXVtjSF0yKU4oW05IMl0pW09IXQ==

>  <s_glide_docking_method>  (1) 
confgen

>  <s_i_glide_gridfile>  (1) 
gpcr_drd2_6luq_protein_autoprepared_prepared

>  <s_lp_Force_Field>  (1) 
S-OPLS

>  <s_lp_Variant>  (1) 
DiffSBDD_14-1

>  <s_m_source_file>  (1) 
generated_generic_title2_ligand_DiffSBDD_2026-06-23_prepared.sdf

>  <GenAI_Model>  (1) 
DiffSBDD

>  <Protein>  (1) 
generic_title2

$$$$
DiffSBDD_12
     RDKit          3D

  0  0  0  0  0  0  0  0  0  0999 V3000
M  V30 BEGIN CTAB
M  V30 COUNTS 20 21 0 0 1
M  V30 BEGIN ATOM
M  V30 1 C 12.176044 7.889667 -9.424487 0
M  V30 2 C 10.996661 8.790137 -9.547342 0
M  V30 3 C 10.564052 6.984720 -5.606946 0
M  V30 4 N 11.990180 8.606744 -4.490932 0 CHG=1
M  V30 5 C 11.375322 8.052151 -5.689391 0
M  V30 6 C 9.969863 6.415235 -6.787808 0
M  V30 7 O 12.706386 9.590182 -4.615357 0 CHG=-1
M  V30 8 C 11.205429 8.019751 -8.262201 0
M  V30 9 C 11.739930 8.747747 -7.006164 0
M  V30 10 O 11.775389 8.057023 -3.417126 0
M  V30 11 C 10.257374 6.887785 -8.007112 0
M  V30 12 H 13.152620 8.364152 -9.344249 0
M  V30 13 H 12.158054 6.970702 -9.999859 0
M  V30 14 H 10.191569 8.469765 -10.206780 0
M  V30 15 H 11.224649 9.852984 -9.580138 0
M  V30 16 H 10.351618 6.542237 -4.644604 0
M  V30 17 H 9.279856 5.590383 -6.690147 0
M  V30 18 H 11.372782 9.771629 -6.983050 0
M  V30 19 H 12.825650 8.816370 -7.079403 0
M  V30 20 H 9.791400 6.437490 -8.872657 0
M  V30 END ATOM
M  V30 BEGIN BOND
M  V30 1 1 2 1
M  V30 2 2 5 3
M  V30 3 1 5 4
M  V30 4 1 6 3
M  V30 5 1 7 4
M  V30 6 1 8 1
M  V30 7 1 8 2
M  V30 8 1 9 5
M  V30 9 1 9 8
M  V30 10 2 10 4
M  V30 11 2 11 6
M  V30 12 1 11 8
M  V30 13 1 12 1
M  V30 14 1 13 1
M  V30 15 1 14 2
M  V30 16 1 15 2
M  V30 17 1 16 3
M  V30 18 1 17 6
M  V30 19 1 18 9
M  V30 20 1 19 9
M  V30 21 1 20 11
M  V30 END BOND
M  V30 END CTAB
M  END
>  <i_epik_Tot_Q>  (1) 
0

>  <i_epik_Tot_abs_Q>  (1) 
2

>  <i_i_glide_confnum>  (1) 
1

>  <i_i_glide_lignum>  (1) 
24

>  <i_i_glide_posenum>  (1) 
151

>  <i_i_glide_rotatable_bonds>  (1) 
1

>  <i_lp_mmshare_version>  (1) 
72125

>  <i_m_source_file_index>  (1) 
13

>  <i_f3d_flags>  (1) 
0

>  <num_sample>  (1) 
100

>  <b_lp_Chiralities_Consistent>  (1) 
1

>  <r_epik_Charging_Adjusted_Penalty>  (1) 
0

>  <r_epik_Ionization_Penalty>  (1) 
1.9453475992489072e-06

>  <r_epik_Ionization_Penalty_Charging>  (1) 
0

>  <r_epik_Ionization_Penalty_Neutral>  (1) 
1.9453475992489072e-06

>  <r_epik_State_Penalty>  (1) 
-0

>  <r_glide_ring_energy>  (1) 
0

>  <r_i_docking_score>  (1) 
-5.6210771698290039

>  <r_i_glide_ecoul>  (1) 
-0.48213929387121457

>  <r_i_glide_eff_state_penalty>  (1) 
-0

>  <r_i_glide_einternal>  (1) 
0.045371585263475289

>  <r_i_glide_emodel>  (1) 
-25.214006875657063

>  <r_i_glide_emodel_strain>  (1) 
0

>  <r_i_glide_energy>  (1) 
-18.411830163935505

>  <r_i_glide_erotb>  (1) 
0

>  <r_i_glide_esite>  (1) 
0

>  <r_i_glide_evdw>  (1) 
-17.929690870064292

>  <r_i_glide_gscore>  (1) 
-5.6210771698290039

>  <r_i_glide_gscore_strain>  (1) 
0

>  <r_i_glide_hbond>  (1) 
0

>  <r_i_glide_ligand_efficiency>  (1) 
-0.5110070154390004

>  <r_i_glide_ligand_efficiency_ln>  (1) 
-1.6542820536077645

>  <r_i_glide_ligand_efficiency_sa>  (1) 
-1.1364694284775838

>  <r_i_glide_lipo>  (1) 
-1.3612232285785966

>  <r_i_glide_metal>  (1) 
-0

>  <r_i_glide_rewards>  (1) 
-3.2910485036665102

>  <r_lp_Energy>  (1) 
16.789680999999998

>  <r_lp_tautomer_probability>  (1) 
1

>  <s_epik_cmdline>  (1) 
J2VwaWtfcHl0aG9uJywgJy1waHQnLCAnMS4wJywgJy1waCcsICc3LjQnLCAnLXRuJywgJzgnLCAnLW1hJywgJzUwMCcsICctaW1hZScsICc8aW5maWxlLm1hZT4nLCAnLW9tYWUnLCAnPG91dGZpbGUubWFlPic=

>  <s_epik_input>  (1) 
W0NIMl0xW0NIMl1DMTJbQ0gyXUMoW04rXShbTy1dKT1PKT1bQ0hdW0NIXT1bQ0hdMg==

>  <s_glide_docking_method>  (1) 
confgen

>  <s_i_glide_gridfile>  (1) 
gpcr_drd2_6luq_protein_autoprepared_prepared

>  <s_lp_Force_Field>  (1) 
S-OPLS

>  <s_lp_Variant>  (1) 
DiffSBDD_12-1

>  <s_m_source_file>  (1) 
generated_generic_title2_ligand_DiffSBDD_2026-06-23_prepared.sdf

>  <GenAI_Model>  (1) 
DiffSBDD

>  <Protein>  (1) 
generic_title2

$$$$
DiffSBDD_66
     RDKit          3D

  0  0  0  0  0  0  0  0  0  0999 V3000
M  V30 BEGIN CTAB
M  V30 COUNTS 37 39 0 0 1
M  V30 BEGIN ATOM
M  V30 1 F 5.375508 3.658899 -19.331143 0
M  V30 2 C 5.844090 6.528380 -19.822806 0
M  V30 3 N 8.119295 5.039631 -11.945511 0
M  V30 4 C 6.911859 5.476753 -19.339324 0 CFG=2
M  V30 5 C 6.595084 4.019898 -19.724491 0
M  V30 6 C 5.251202 7.359679 -16.470024 0
M  V30 7 N 5.179622 7.262866 -18.981326 0
M  V30 8 F 6.675245 3.889064 -21.048209 0
M  V30 9 C 7.517576 5.072436 -14.223353 0 CFG=1
M  V30 10 C 7.329983 5.190842 -16.803218 0
M  V30 11 O 8.975438 7.052567 -10.939039 0
M  V30 12 C 7.121055 5.922508 -15.447470 0 CFG=1
M  V30 13 C 7.112943 5.512982 -11.013133 0 CFG=2
M  V30 14 C 5.672166 6.439812 -15.307929 0
M  V30 15 F 7.487397 3.200253 -19.170507 0
M  V30 16 C 8.576126 5.708527 -10.721100 0 CFG=1
M  V30 17 C 6.600840 5.870031 -17.950211 0
M  V30 18 O 8.575406 4.201966 -14.530643 0
M  V30 19 N 8.032005 5.865878 -13.102703 0
M  V30 20 O 6.549785 4.390290 -10.385105 0
M  V30 21 C 5.703431 6.802616 -17.803894 0
M  V30 22 H 5.701158 6.598421 -20.904374 0
M  V30 23 H 7.917736 5.786241 -19.625243 0
M  V30 24 H 5.704811 8.344256 -16.348806 0
M  V30 25 H 4.170835 7.508076 -16.473237 0
M  V30 26 H 6.664560 4.477638 -13.891205 0
M  V30 27 H 8.394126 5.142606 -17.037465 0
M  V30 28 H 6.975549 4.162279 -16.736729 0
M  V30 29 H 8.383688 7.589659 -10.410522 0
M  V30 30 H 7.775381 6.790035 -15.451802 0
M  V30 31 H 6.445604 6.344327 -11.238364 0
M  V30 32 H 4.985202 5.593029 -15.264117 0
M  V30 33 H 5.550611 6.972971 -14.364279 0
M  V30 34 H 9.049047 5.170926 -9.901304 0
M  V30 35 H 9.140373 4.197130 -13.770051 0
M  V30 36 H 7.433977 6.669018 -12.917711 0
M  V30 37 H 6.304313 4.628111 -9.498437 0
M  V30 END ATOM
M  V30 BEGIN BOND
M  V30 1 1 4 2
M  V30 2 1 5 1
M  V30 3 1 5 4
M  V30 4 2 7 2
M  V30 5 1 8 5
M  V30 6 1 12 9
M  V30 7 1 12 10
M  V30 8 1 13 3
M  V30 9 1 14 6
M  V30 10 1 14 12
M  V30 11 1 15 5
M  V30 12 1 16 3
M  V30 13 1 16 11
M  V30 14 1 16 13
M  V30 15 1 17 4
M  V30 16 1 17 10
M  V30 17 1 18 9
M  V30 18 1 19 3
M  V30 19 1 19 9
M  V30 20 1 20 13
M  V30 21 1 21 6
M  V30 22 1 21 7
M  V30 23 2 21 17
M  V30 24 1 22 2
M  V30 25 1 4 23 CFG=3
M  V30 26 1 24 6
M  V30 27 1 25 6
M  V30 28 1 9 26 CFG=1
M  V30 29 1 27 10
M  V30 30 1 28 10
M  V30 31 1 29 11
M  V30 32 1 12 30 CFG=3
M  V30 33 1 13 31 CFG=3
M  V30 34 1 32 14
M  V30 35 1 33 14
M  V30 36 1 16 34 CFG=1
M  V30 37 1 35 18
M  V30 38 1 36 19
M  V30 39 1 37 20
M  V30 END BOND
M  V30 END CTAB
M  END
>  <i_epik_Tot_Q>  (1) 
0

>  <i_epik_Tot_abs_Q>  (1) 
0

>  <i_i_glide_confnum>  (1) 
11

>  <i_i_glide_lignum>  (1) 
108

>  <i_i_glide_posenum>  (1) 
168

>  <i_i_glide_rotatable_bonds>  (1) 
7

>  <i_lp_mmshare_version>  (1) 
72125

>  <i_m_source_file_index>  (1) 
67

>  <i_f3d_flags>  (1) 
0

>  <num_sample>  (1) 
100

>  <b_lp_Chiralities_Consistent>  (1) 
1

>  <r_epik_Charging_Adjusted_Penalty>  (1) 
0

>  <r_epik_Ionization_Penalty>  (1) 
9.0569377288722374e-07

>  <r_epik_Ionization_Penalty_Charging>  (1) 
0

>  <r_epik_Ionization_Penalty_Neutral>  (1) 
9.0569377288722374e-07

>  <r_epik_State_Penalty>  (1) 
-0

>  <r_glide_ring_energy>  (1) 
0

>  <r_i_docking_score>  (1) 
-5.6118335693017052

>  <r_i_glide_ecoul>  (1) 
-8.5660972779264259

>  <r_i_glide_eff_state_penalty>  (1) 
-0

>  <r_i_glide_einternal>  (1) 
6.1594605478862903

>  <r_i_glide_emodel>  (1) 
-37.832524341145458

>  <r_i_glide_emodel_strain>  (1) 
0.53343337037743765

>  <r_i_glide_energy>  (1) 
-29.875351373204687

>  <r_i_glide_erotb>  (1) 
0.58731731641866725

>  <r_i_glide_esite>  (1) 
-0.16220214289378446

>  <r_i_glide_evdw>  (1) 
-21.309254095278263

>  <r_i_glide_gscore>  (1) 
-5.6118335693017052

>  <r_i_glide_gscore_strain>  (1) 
0

>  <r_i_glide_hbond>  (1) 
-0.45599999999999996

>  <r_i_glide_ligand_efficiency>  (1) 
-0.26723016996674787

>  <r_i_glide_ligand_efficiency_ln>  (1) 
-1.3875145102323847

>  <r_i_glide_ligand_efficiency_sa>  (1) 
-0.73726777657969689

>  <r_i_glide_lipo>  (1) 
-1.2025668853203355

>  <r_i_glide_metal>  (1) 
-0

>  <r_i_glide_rewards>  (1) 
-2.0280045610533746

>  <r_lp_Energy>  (1) 
5.5804089999999995

>  <r_lp_tautomer_probability>  (1) 
1

>  <s_epik_Chemistry_Notes>  (1) 
This compound has an imine and may undergo hydrolysis. This compound contains an acetal/aminal-like group ( X-CH(R)-Y where X, Y are N, S, or O) that may be acid/base labile, releasing an aldehyde.

>  <s_epik_cmdline>  (1) 
J2VwaWtfcHl0aG9uJywgJy1waHQnLCAnMS4wJywgJy1waCcsICc3LjQnLCAnLXRuJywgJzgnLCAnLW1hJywgJzUwMCcsICctaW1hZScsICc8aW5maWxlLm1hZT4nLCAnLW9tYWUnLCAnPG91dGZpbGUubWFlPic=

>  <s_epik_input>  (1) 
RkMoRikoRilbQ0BIXTFbQ0hdPU5DKD1DMTIpW0NIMl1bQ0gyXVtDQEhdKFtDSDJdMilbQ0BASF0oW09IXSlbTkhdTjNbQ0BASF0oW09IXSlbQ0hdM1tPSF0=

>  <s_glide_docking_method>  (1) 
confgen

>  <s_i_glide_gridfile>  (1) 
gpcr_drd2_6luq_protein_autoprepared_prepared

>  <s_lp_Force_Field>  (1) 
S-OPLS

>  <s_lp_Variant>  (1) 
DiffSBDD_66-1

>  <s_m_source_file>  (1) 
generated_generic_title2_ligand_DiffSBDD_2026-06-23_prepared.sdf

>  <GenAI_Model>  (1) 
DiffSBDD

>  <Protein>  (1) 
generic_title2

$$$$
DiffSBDD_12
     RDKit          3D

  0  0  0  0  0  0  0  0  0  0999 V3000
M  V30 BEGIN CTAB
M  V30 COUNTS 20 21 0 0 1
M  V30 BEGIN ATOM
M  V30 1 C 11.433169 10.240272 -5.661650 0
M  V30 2 C 12.753917 9.590227 -5.390246 0
M  V30 3 C 10.228563 6.765528 -7.602880 0
M  V30 4 N 10.932670 7.590227 -9.772859 0 CHG=1
M  V30 5 C 10.966134 7.626817 -8.323850 0
M  V30 6 C 10.268259 6.790231 -6.166610 0
M  V30 7 O 10.175410 6.793666 -10.318062 0 CHG=-1
M  V30 8 C 11.700179 8.842370 -6.183014 0
M  V30 9 C 11.896650 8.673757 -7.705691 0
M  V30 10 O 11.669657 8.353820 -10.384986 0
M  V30 11 C 10.956395 7.734019 -5.508901 0
M  V30 12 H 11.434710 11.058778 -6.376388 0
M  V30 13 H 10.748939 10.356582 -4.822952 0
M  V30 14 H 12.953511 9.265930 -4.370489 0
M  V30 15 H 13.618607 9.972397 -5.930525 0
M  V30 16 H 9.603932 6.039391 -8.103284 0
M  V30 17 H 9.738420 6.032643 -5.607799 0
M  V30 18 H 12.923834 8.356665 -7.889574 0
M  V30 19 H 11.773567 9.632133 -8.206304 0
M  V30 20 H 10.975413 7.721644 -4.429424 0
M  V30 END ATOM
M  V30 BEGIN BOND
M  V30 1 1 2 1
M  V30 2 2 5 3
M  V30 3 1 5 4
M  V30 4 1 6 3
M  V30 5 1 7 4
M  V30 6 1 8 1
M  V30 7 1 8 2
M  V30 8 1 9 5
M  V30 9 1 9 8
M  V30 10 2 10 4
M  V30 11 2 11 6
M  V30 12 1 11 8
M  V30 13 1 12 1
M  V30 14 1 13 1
M  V30 15 1 14 2
M  V30 16 1 15 2
M  V30 17 1 16 3
M  V30 18 1 17 6
M  V30 19 1 18 9
M  V30 20 1 19 9
M  V30 21 1 20 11
M  V30 END BOND
M  V30 END CTAB
M  END
>  <i_epik_Tot_Q>  (1) 
0

>  <i_epik_Tot_abs_Q>  (1) 
2

>  <i_i_glide_confnum>  (1) 
1

>  <i_i_glide_lignum>  (1) 
24

>  <i_i_glide_posenum>  (1) 
229

>  <i_i_glide_rotatable_bonds>  (1) 
1

>  <i_lp_mmshare_version>  (1) 
72125

>  <i_m_source_file_index>  (1) 
13

>  <i_f3d_flags>  (1) 
0

>  <num_sample>  (1) 
100

>  <b_lp_Chiralities_Consistent>  (1) 
1

>  <r_epik_Charging_Adjusted_Penalty>  (1) 
0

>  <r_epik_Ionization_Penalty>  (1) 
1.9453475992489072e-06

>  <r_epik_Ionization_Penalty_Charging>  (1) 
0

>  <r_epik_Ionization_Penalty_Neutral>  (1) 
1.9453475992489072e-06

>  <r_epik_State_Penalty>  (1) 
-0

>  <r_glide_ring_energy>  (1) 
0

>  <r_i_docking_score>  (1) 
-5.6116899179795272

>  <r_i_glide_ecoul>  (1) 
-0.19332415996776511

>  <r_i_glide_eff_state_penalty>  (1) 
-0

>  <r_i_glide_einternal>  (1) 
0.013535133782001552

>  <r_i_glide_emodel>  (1) 
-26.691088196098136

>  <r_i_glide_emodel_strain>  (1) 
0.083517371358318826

>  <r_i_glide_energy>  (1) 
-19.967908214697371

>  <r_i_glide_erotb>  (1) 
0

>  <r_i_glide_esite>  (1) 
-0.050120821094057647

>  <r_i_glide_evdw>  (1) 
-19.774584054729605

>  <r_i_glide_gscore>  (1) 
-5.6116899179795272

>  <r_i_glide_gscore_strain>  (1) 
0

>  <r_i_glide_hbond>  (1) 
0

>  <r_i_glide_ligand_efficiency>  (1) 
-0.51015362890722971

>  <r_i_glide_ligand_efficiency_ln>  (1) 
-1.6515193869874523

>  <r_i_glide_ligand_efficiency_sa>  (1) 
-1.1345715138213659

>  <r_i_glide_lipo>  (1) 
-1.7863405480448753

>  <r_i_glide_metal>  (1) 
-0

>  <r_i_glide_rewards>  (1) 
-2.7575007221089489

>  <r_lp_Energy>  (1) 
16.789680999999998

>  <r_lp_tautomer_probability>  (1) 
1

>  <s_epik_cmdline>  (1) 
J2VwaWtfcHl0aG9uJywgJy1waHQnLCAnMS4wJywgJy1waCcsICc3LjQnLCAnLXRuJywgJzgnLCAnLW1hJywgJzUwMCcsICctaW1hZScsICc8aW5maWxlLm1hZT4nLCAnLW9tYWUnLCAnPG91dGZpbGUubWFlPic=

>  <s_epik_input>  (1) 
W0NIMl0xW0NIMl1DMTJbQ0gyXUMoW04rXShbTy1dKT1PKT1bQ0hdW0NIXT1bQ0hdMg==

>  <s_glide_docking_method>  (1) 
confgen

>  <s_i_glide_gridfile>  (1) 
gpcr_drd2_6luq_protein_autoprepared_prepared

>  <s_lp_Force_Field>  (1) 
S-OPLS

>  <s_lp_Variant>  (1) 
DiffSBDD_12-1

>  <s_m_source_file>  (1) 
generated_generic_title2_ligand_DiffSBDD_2026-06-23_prepared.sdf

>  <GenAI_Model>  (1) 
DiffSBDD

>  <Protein>  (1) 
generic_title2

$$$$
DiffSBDD_75
     RDKit          3D

  0  0  0  0  0  0  0  0  0  0999 V3000
M  V30 BEGIN CTAB
M  V30 COUNTS 71 75 0 0 1
M  V30 BEGIN ATOM
M  V30 1 C 7.068476 7.440296 -14.102791 0
M  V30 2 C 9.653822 7.911308 -11.272594 0
M  V30 3 C 10.241095 6.582660 -9.209073 0 CFG=1
M  V30 4 C 10.446325 7.054856 -5.401160 0
M  V30 5 C 9.590740 6.846038 -7.845268 0
M  V30 6 C 4.136624 6.967120 -17.646715 0
M  V30 7 F 5.273116 5.173445 -21.335434 0
M  V30 8 C 11.795149 7.852716 -7.475971 0 CFG=1
M  V30 9 C 7.434133 5.940857 -20.800187 0
M  V30 10 F 5.921750 7.054600 -22.158395 0
M  V30 11 C 8.461722 8.295957 -12.144669 0
M  V30 12 C 7.403807 6.109615 -11.920374 0
M  V30 13 F 8.896770 4.491468 -19.706875 0
M  V30 14 C 5.251065 7.069988 -19.947100 0
M  V30 15 N 9.374536 6.782212 -10.381610 0
M  V30 16 C 7.674114 5.008940 -19.596968 0 CFG=1
M  V30 17 C 6.415364 6.302879 -17.823833 0
M  V30 18 C 7.102973 6.453714 -15.287773 0
M  V30 19 C 4.807974 6.998311 -16.261834 0
M  V30 20 N 8.993073 4.444905 -10.995005 0 CHG=1
M  V30 21 C 8.008929 7.071979 -12.939837 0 CFG=1
M  V30 22 S 11.750203 7.606719 -9.264357 0
M  V30 23 C 12.389205 9.831346 -5.935741 0
M  V30 24 C 11.545178 9.325485 -7.112176 0
M  V30 25 C 5.134453 6.304776 -18.616500 0 CFG=1
M  V30 26 C 8.057263 4.588397 -9.891174 0
M  V30 27 C 7.546897 5.720091 -18.263077 0
M  V30 28 C 10.787216 6.855808 -6.881057 0 CFG=1
M  V30 29 C 8.386969 5.745689 -10.799957 0 CFG=2
M  V30 30 C 5.956487 6.288008 -21.067815 0
M  V30 31 C 6.308189 7.011037 -16.494280 0 CFG=2
M  V30 32 H 7.375479 8.408563 -14.495983 0
M  V30 33 H 6.052142 7.582651 -13.734120 0
M  V30 34 H 10.508156 7.652863 -11.899460 0
M  V30 35 H 9.920440 8.785678 -10.682561 0
M  V30 36 H 10.574946 5.550694 -9.184275 0
M  V30 37 H 9.987271 8.022651 -5.217084 0
M  V30 38 H 9.759030 6.283943 -5.058218 0
M  V30 39 H 11.343160 6.982719 -4.786309 0
M  V30 40 H 9.065735 7.802377 -7.842345 0
M  V30 41 H 8.863888 6.083788 -7.571648 0
M  V30 42 H 3.181234 6.443692 -17.623263 0
M  V30 43 H 3.926915 7.990442 -17.957300 0
M  V30 44 H 12.799837 7.595638 -7.185025 0
M  V30 45 H 7.829539 5.458702 -21.695513 0
M  V30 46 H 8.015539 6.855770 -20.675587 0
M  V30 47 H 8.751386 9.121426 -12.785014 0
M  V30 48 H 7.642548 8.689667 -11.543073 0
M  V30 49 H 6.521314 6.563449 -11.466039 0
M  V30 50 H 7.044716 5.209423 -12.421254 0
M  V30 51 H 4.249813 7.323585 -20.295967 0
M  V30 52 H 5.755232 8.023873 -19.781720 0
M  V30 53 H 6.993531 4.158182 -19.627768 0
M  V30 54 H 6.721080 5.478679 -14.984200 0
M  V30 55 H 8.144190 6.291478 -15.560385 0
M  V30 56 H 4.575362 6.089285 -15.709890 0
M  V30 57 H 4.502143 7.865991 -15.674811 0
M  V30 58 H 8.642958 3.889448 -11.761537 0
M  V30 59 H 8.892500 6.587433 -13.354661 0
M  V30 60 H 12.172692 10.881646 -5.748288 0
M  V30 61 H 12.178419 9.283419 -5.017927 0
M  V30 62 H 13.456474 9.747831 -6.143307 0
M  V30 63 H 11.775295 9.943556 -7.978438 0
M  V30 64 H 10.492341 9.494393 -6.889771 0
M  V30 65 H 4.851512 5.269096 -18.796879 0
M  V30 66 H 8.592677 4.390253 -8.967523 0
M  V30 67 H 7.164531 3.995229 -10.079779 0
M  V30 68 H 8.435814 5.749837 -17.651407 0
M  V30 69 H 11.253347 5.869655 -6.939607 0
M  V30 70 H 6.575417 8.046916 -16.682387 0
M  V30 71 H 9.956015 4.346192 -10.710668 0
M  V30 END ATOM
M  V30 BEGIN BOND
M  V30 1 1 5 3
M  V30 2 1 11 2
M  V30 3 1 15 2
M  V30 4 1 15 3
M  V30 5 1 16 9
M  V30 6 1 16 13
M  V30 7 1 18 1
M  V30 8 1 19 6
M  V30 9 1 21 1
M  V30 10 1 21 11
M  V30 11 1 21 12
M  V30 12 1 22 3
M  V30 13 1 22 8
M  V30 14 1 24 8
M  V30 15 1 24 23
M  V30 16 1 25 6
M  V30 17 1 25 14
M  V30 18 1 25 17
M  V30 19 1 26 20
M  V30 20 1 27 16
M  V30 21 2 27 17
M  V30 22 1 28 4
M  V30 23 1 28 5
M  V30 24 1 28 8
M  V30 25 1 29 12
M  V30 26 1 29 15 CFG=1
M  V30 27 1 29 20
M  V30 28 1 29 26
M  V30 29 1 30 7
M  V30 30 1 30 9
M  V30 31 1 30 10
M  V30 32 1 30 14
M  V30 33 1 31 17
M  V30 34 1 31 18
M  V30 35 1 31 19
M  V30 36 1 32 1
M  V30 37 1 33 1
M  V30 38 1 34 2
M  V30 39 1 35 2
M  V30 40 1 3 36 CFG=1
M  V30 41 1 37 4
M  V30 42 1 38 4
M  V30 43 1 39 4
M  V30 44 1 40 5
M  V30 45 1 41 5
M  V30 46 1 42 6
M  V30 47 1 43 6
M  V30 48 1 8 44 CFG=1
M  V30 49 1 45 9
M  V30 50 1 46 9
M  V30 51 1 47 11
M  V30 52 1 48 11
M  V30 53 1 49 12
M  V30 54 1 50 12
M  V30 55 1 51 14
M  V30 56 1 52 14
M  V30 57 1 16 53 CFG=1
M  V30 58 1 54 18
M  V30 59 1 55 18
M  V30 60 1 56 19
M  V30 61 1 57 19
M  V30 62 1 58 20
M  V30 63 1 21 59 CFG=3
M  V30 64 1 60 23
M  V30 65 1 61 23
M  V30 66 1 62 23
M  V30 67 1 63 24
M  V30 68 1 64 24
M  V30 69 1 25 65 CFG=3
M  V30 70 1 66 26
M  V30 71 1 67 26
M  V30 72 1 68 27
M  V30 73 1 28 69 CFG=1
M  V30 74 1 31 70 CFG=3
M  V30 75 1 71 20
M  V30 END BOND
M  V30 END CTAB
M  END
>  <i_epik_Tot_Q>  (1) 
1

>  <i_epik_Tot_abs_Q>  (1) 
1

>  <i_i_glide_confnum>  (1) 
79

>  <i_i_glide_lignum>  (1) 
123

>  <i_i_glide_posenum>  (1) 
174

>  <i_i_glide_rotatable_bonds>  (1) 
5

>  <i_lp_mmshare_version>  (1) 
72125

>  <i_m_source_file_index>  (1) 
76

>  <i_f3d_flags>  (1) 
0

>  <num_sample>  (1) 
100

>  <b_lp_Chiralities_Consistent>  (1) 
1

>  <r_epik_Charging_Adjusted_Penalty>  (1) 
0.021643694203304514

>  <r_epik_Ionization_Penalty>  (1) 
0.021651518670722316

>  <r_epik_Ionization_Penalty_Charging>  (1) 
0.021643694203304514

>  <r_epik_Ionization_Penalty_Neutral>  (1) 
7.8244674178018311e-06

>  <r_epik_State_Penalty>  (1) 
-0

>  <r_glide_ring_energy>  (1) 
0

>  <r_i_docking_score>  (1) 
-5.6105250157823239

>  <r_i_glide_ecoul>  (1) 
-2.3597714288543696

>  <r_i_glide_eff_state_penalty>  (1) 
-0

>  <r_i_glide_einternal>  (1) 
11.429910952553726

>  <r_i_glide_emodel>  (1) 
-29.896207550119016

>  <r_i_glide_emodel_strain>  (1) 
1.7652139625200505

>  <r_i_glide_energy>  (1) 
-30.450864372391838

>  <r_i_glide_erotb>  (1) 
0.38396893463604614

>  <r_i_glide_esite>  (1) 
-0.073575204701124899

>  <r_i_glide_evdw>  (1) 
-28.091092943537468

>  <r_i_glide_gscore>  (1) 
-5.6105250157823239

>  <r_i_glide_gscore_strain>  (1) 
0

>  <r_i_glide_hbond>  (1) 
0

>  <r_i_glide_ligand_efficiency>  (1) 
-0.18098467792846207

>  <r_i_glide_ligand_efficiency_ln>  (1) 
-1.2653453330012014

>  <r_i_glide_ligand_efficiency_sa>  (1) 
-0.56854176562375836

>  <r_i_glide_lipo>  (1) 
-3.0733740869833843

>  <r_i_glide_metal>  (1) 
-0

>  <r_i_glide_rewards>  (1) 
-1.0890242972288324

>  <r_lp_Energy>  (1) 
29.145934999999998

>  <r_lp_tautomer_probability>  (1) 
1

>  <s_epik_Chemistry_Notes>  (1) 
This compound contains an acetal/aminal-like group ( X-CH(R)-Y where X, Y are N, S, or O) that may be acid/base labile, releasing an aldehyde.

>  <s_epik_cmdline>  (1) 
J2VwaWtfcHl0aG9uJywgJy1waHQnLCAnMS4wJywgJy1waCcsICc3LjQnLCAnLXRuJywgJzgnLCAnLW1hJywgJzUwMCcsICctaW1hZScsICc8aW5maWxlLm1hZT4nLCAnLW9tYWUnLCAnPG91dGZpbGUubWFlPic=

>  <s_epik_input>  (1) 
W0NIM11bQ0gyXVtDQEhdKFMxKVtDQEBIXShbQ0gzXSlbQ0gyXVtDQEhdMU4yW0NIMl1bQ0gyXVtDQEBIXShbQ0gyXVtDQEBdMjNbTkhdW0NIMl0zKVtDSDJdW0NIMl1bQ0BASF00W0NIMl1bQ0gyXVtDQEhdKEM0PTUpW0NIMl1DKEYpKEYpW0NIMl1bQ0BASF0oRilbQ0hdNQ==

>  <s_glide_docking_method>  (1) 
confgen

>  <s_i_glide_gridfile>  (1) 
gpcr_drd2_6luq_protein_autoprepared_prepared

>  <s_lp_Force_Field>  (1) 
S-OPLS

>  <s_lp_Variant>  (1) 
DiffSBDD_75-1

>  <s_m_source_file>  (1) 
generated_generic_title2_ligand_DiffSBDD_2026-06-23_prepared.sdf

>  <GenAI_Model>  (1) 
DiffSBDD

>  <Protein>  (1) 
generic_title2

$$$$
DiffSBDD_11
     RDKit          3D

  0  0  0  0  0  0  0  0  0  0999 V3000
M  V30 BEGIN CTAB
M  V30 COUNTS 43 43 0 0 1
M  V30 BEGIN ATOM
M  V30 1 C 7.154773 6.078096 -12.064002 0 CFG=1
M  V30 2 C 10.574199 7.533638 -5.467216 0
M  V30 3 C 7.276319 4.964513 -11.011033 0
M  V30 4 C 9.375816 6.827266 -8.439836 0
M  V30 5 C 12.695491 9.282277 -3.820697 0
M  V30 6 C 10.830638 6.836737 -7.933964 0 CFG=1
M  V30 7 C 11.689772 9.030565 -7.078694 0
M  V30 8 C 8.781920 5.418512 -8.657904 0
M  V30 9 C 11.500621 8.197249 -8.116841 0
M  V30 10 C 5.688575 6.330843 -12.443759 0
M  V30 11 N 7.788771 7.316393 -11.585025 0 CHG=1
M  V30 12 N 11.291940 8.758067 -5.787501 0
M  V30 13 C 11.504581 9.691280 -4.693097 0
M  V30 14 C 11.949091 8.539653 -9.526693 0
M  V30 15 C 10.932084 6.409311 -6.450036 0
M  V30 16 S 8.974931 4.801089 -10.364537 0
M  V30 17 H 7.693915 5.771568 -12.961515 0
M  V30 18 H 9.508287 7.744358 -5.556671 0
M  V30 19 H 10.766496 7.205511 -4.443814 0
M  V30 20 H 6.990240 4.011677 -11.461529 0
M  V30 21 H 6.574393 5.129738 -10.192795 0
M  V30 22 H 8.755623 7.362285 -7.720646 0
M  V30 23 H 9.299163 7.396585 -9.361368 0
M  V30 24 H 12.783281 9.934912 -2.952332 0
M  V30 25 H 12.597984 8.258723 -3.456807 0
M  V30 26 H 13.624920 9.352056 -4.385231 0
M  V30 27 H 11.375387 6.114484 -8.531427 0
M  V30 28 H 12.168932 9.985748 -7.188098 0
M  V30 29 H 9.240203 4.691092 -7.991176 0
M  V30 30 H 7.727910 5.431156 -8.387608 0
M  V30 31 H 5.232908 5.427594 -12.856090 0
M  V30 32 H 5.096510 6.633907 -11.576565 0
M  V30 33 H 5.595874 7.114084 -13.198571 0
M  V30 34 H 7.375688 7.590227 -10.660658 0
M  V30 35 H 8.770544 7.139495 -11.436293 0
M  V30 36 H 11.652609 10.695680 -5.087422 0
M  V30 37 H 10.602309 9.744308 -4.086600 0
M  V30 38 H 12.709111 7.835171 -9.858978 0
M  V30 39 H 11.114028 8.493280 -10.223882 0
M  V30 40 H 12.369728 9.542448 -9.583167 0
M  V30 41 H 10.256121 5.590274 -6.250594 0
M  V30 42 H 11.940330 6.048091 -6.240882 0
M  V30 43 H 7.657340 8.067624 -12.243697 0
M  V30 END ATOM
M  V30 BEGIN BOND
M  V30 1 1 3 1
M  V30 2 1 6 4
M  V30 3 1 8 4
M  V30 4 1 9 6
M  V30 5 2 9 7
M  V30 6 1 10 1
M  V30 7 1 11 1
M  V30 8 1 12 2
M  V30 9 1 12 7
M  V30 10 1 13 5
M  V30 11 1 13 12
M  V30 12 1 14 9
M  V30 13 1 15 2
M  V30 14 1 15 6
M  V30 15 1 16 3
M  V30 16 1 16 8
M  V30 17 1 1 17 CFG=3
M  V30 18 1 18 2
M  V30 19 1 19 2
M  V30 20 1 20 3
M  V30 21 1 21 3
M  V30 22 1 22 4
M  V30 23 1 23 4
M  V30 24 1 24 5
M  V30 25 1 25 5
M  V30 26 1 26 5
M  V30 27 1 6 27 CFG=3
M  V30 28 1 28 7
M  V30 29 1 29 8
M  V30 30 1 30 8
M  V30 31 1 31 10
M  V30 32 1 32 10
M  V30 33 1 33 10
M  V30 34 1 34 11
M  V30 35 1 35 11
M  V30 36 1 36 13
M  V30 37 1 37 13
M  V30 38 1 38 14
M  V30 39 1 39 14
M  V30 40 1 40 14
M  V30 41 1 41 15
M  V30 42 1 42 15
M  V30 43 1 43 11
M  V30 END BOND
M  V30 END CTAB
M  END
>  <i_epik_Tot_Q>  (1) 
1

>  <i_epik_Tot_abs_Q>  (1) 
1

>  <i_i_glide_confnum>  (1) 
117

>  <i_i_glide_lignum>  (1) 
23

>  <i_i_glide_posenum>  (1) 
379

>  <i_i_glide_rotatable_bonds>  (1) 
6

>  <i_lp_mmshare_version>  (1) 
72125

>  <i_m_source_file_index>  (1) 
12

>  <i_f3d_flags>  (1) 
0

>  <num_sample>  (1) 
100

>  <b_lp_Chiralities_Consistent>  (1) 
1

>  <r_epik_Charging_Adjusted_Penalty>  (1) 
1.9642440234168317

>  <r_epik_Ionization_Penalty>  (1) 
0.98935146828666498

>  <r_epik_Ionization_Penalty_Charging>  (1) 
0.98585147642448279

>  <r_epik_Ionization_Penalty_Neutral>  (1) 
0.0034999918621821963

>  <r_epik_State_Penalty>  (1) 
0.9783925469923489

>  <r_glide_ring_energy>  (1) 
0.56190882101019335

>  <r_i_docking_score>  (1) 
-5.6020987101082804

>  <r_i_glide_ecoul>  (1) 
-10.36218261410241

>  <r_i_glide_eff_state_penalty>  (1) 
0.9783925469923489

>  <r_i_glide_einternal>  (1) 
6.4493279954477885

>  <r_i_glide_emodel>  (1) 
-47.871273703936055

>  <r_i_glide_emodel_strain>  (1) 
0.63987863865177985

>  <r_i_glide_energy>  (1) 
-34.987564036179563

>  <r_i_glide_erotb>  (1) 
1.1721704271113136

>  <r_i_glide_esite>  (1) 
-0.10000000000000001

>  <r_i_glide_evdw>  (1) 
-24.625381422077155

>  <r_i_glide_gscore>  (1) 
-6.5804912571006291

>  <r_i_glide_gscore_strain>  (1) 
0

>  <r_i_glide_hbond>  (1) 
-0.10155931883771901

>  <r_i_glide_ligand_efficiency>  (1) 
-0.35013116938176753

>  <r_i_glide_ligand_efficiency_ln>  (1) 
-1.4849481675761151

>  <r_i_glide_ligand_efficiency_sa>  (1) 
-0.88227526105679244

>  <r_i_glide_lipo>  (1) 
-1.9016157979370945

>  <r_i_glide_metal>  (1) 
-0

>  <r_i_glide_rewards>  (1) 
-2.8638901042179112

>  <r_lp_Energy>  (1) 
12.336442

>  <s_epik_Chemistry_Notes>  (1) 
This compound has an imine and may undergo hydrolysis.

>  <s_epik_cmdline>  (1) 
J2VwaWtfcHl0aG9uJywgJy1waHQnLCAnMS4wJywgJy1waCcsICc3LjQnLCAnLXRuJywgJzgnLCAnLW1hJywgJzUwMCcsICctaW1hZScsICc8aW5maWxlLm1hZT4nLCAnLW9tYWUnLCAnPG91dGZpbGUubWFlPic=

>  <s_epik_input>  (1) 
W0NIM11bQ0BASF0oW05IMl0pW0NIMl1TW0NIMl1bQ0gyXVtDQEhdMUMoW0NIM10pPVtDSF1OKFtDSDJdW0NIMl0xKVtDSDJdW0NIM10=

>  <s_glide_docking_method>  (1) 
confgen

>  <s_i_glide_gridfile>  (1) 
gpcr_drd2_6luq_protein_autoprepared_prepared

>  <s_lp_Force_Field>  (1) 
S-OPLS

>  <s_lp_Variant>  (1) 
DiffSBDD_11-3

>  <s_m_source_file>  (1) 
generated_generic_title2_ligand_DiffSBDD_2026-06-23_prepared.sdf

>  <GenAI_Model>  (1) 
DiffSBDD

>  <Protein>  (1) 
generic_title2

$$$$
DiffSBDD_75
     RDKit          3D

  0  0  0  0  0  0  0  0  0  0999 V3000
M  V30 BEGIN CTAB
M  V30 COUNTS 71 75 0 0 1
M  V30 BEGIN ATOM
M  V30 1 C 6.465105 6.904499 -14.488780 0
M  V30 2 C 8.799888 7.490201 -11.448896 0
M  V30 3 C 9.728352 6.033397 -9.665620 0 CFG=1
M  V30 4 C 9.775396 6.681856 -5.866573 0
M  V30 5 C 9.132443 6.051224 -8.258622 0
M  V30 6 C 3.912870 6.946922 -18.310017 0
M  V30 7 F 5.267375 5.233015 -21.977867 0
M  V30 8 C 11.217921 7.436574 -7.886411 0 CFG=1
M  V30 9 C 7.402083 5.892375 -21.240580 0
M  V30 10 F 6.048977 7.116262 -22.666864 0
M  V30 11 C 7.620943 7.725529 -12.387515 0
M  V30 12 C 7.393768 5.277515 -12.702703 0
M  V30 13 F 8.704315 4.329227 -20.109606 0
M  V30 14 C 5.197804 7.070253 -20.517994 0
M  V30 15 N 8.768667 6.175318 -10.785006 0
M  V30 16 C 7.497820 4.893998 -20.074190 0 CFG=1
M  V30 17 C 6.150535 6.154113 -18.339728 0
M  V30 18 C 6.642068 6.093932 -15.783495 0
M  V30 19 C 4.443172 6.880252 -16.870106 0
M  V30 20 N 9.775410 4.641770 -12.384831 0 CHG=1
M  V30 21 C 7.544757 6.616430 -13.434489 0 CFG=1
M  V30 22 S 11.046419 7.301144 -9.676461 0
M  V30 23 C 11.693079 9.355734 -6.196503 0
M  V30 24 C 10.982237 8.905456 -7.483569 0
M  V30 25 C 4.940078 6.262639 -19.231104 0 CFG=1
M  V30 26 C 9.119921 3.654802 -11.543403 0
M  V30 27 C 7.289030 5.541818 -18.719411 0
M  V30 28 C 10.279483 6.367835 -7.276358 0 CFG=1
M  V30 29 C 8.549915 5.048981 -11.729221 0 CFG=2
M  V30 30 C 5.966164 6.307969 -21.610274 0
M  V30 31 C 5.966017 6.789836 -16.981514 0 CFG=2
M  V30 32 H 6.529352 7.961996 -14.748798 0
M  V30 33 H 5.466474 6.761667 -14.073782 0
M  V30 34 H 9.722235 7.591184 -12.021619 0
M  V30 35 H 8.789574 8.289324 -10.707456 0
M  V30 36 H 10.175407 5.057193 -9.705234 0
M  V30 37 H 9.330144 7.672420 -5.801585 0
M  V30 38 H 8.989249 5.990236 -5.584295 0
M  V30 39 H 10.573192 6.610886 -5.127502 0
M  V30 40 H 8.356196 6.790275 -8.158657 0
M  V30 41 H 8.660657 5.096358 -8.022727 0
M  V30 42 H 2.939562 6.472007 -18.379530 0
M  V30 43 H 3.782811 7.990239 -18.593095 0
M  V30 44 H 12.250864 7.190260 -7.641826 0
M  V30 45 H 7.854597 5.437382 -22.122934 0
M  V30 46 H 8.004014 6.775391 -21.021391 0
M  V30 47 H 7.775419 8.691589 -12.870231 0
M  V30 48 H 6.689049 7.793236 -11.824288 0
M  V30 49 H 6.457402 5.258497 -12.141786 0
M  V30 50 H 7.342440 4.455123 -13.417605 0
M  V30 51 H 4.237655 7.373571 -20.937601 0
M  V30 52 H 5.719372 7.996957 -20.272853 0
M  V30 53 H 6.787314 4.077309 -20.206131 0
M  V30 54 H 6.256357 5.082944 -15.650899 0
M  V30 55 H 7.707238 5.990036 -15.983526 0
M  V30 56 H 4.045287 5.990226 -16.385067 0
M  V30 57 H 4.130969 7.745833 -16.285331 0
M  V30 58 H 9.718412 4.438880 -13.372344 0
M  V30 59 H 8.501057 6.592039 -13.950168 0
M  V30 60 H 11.512662 10.415113 -6.011354 0
M  V30 61 H 11.354117 8.811366 -5.317738 0
M  V30 62 H 12.771501 9.220937 -6.279487 0
M  V30 63 H 11.375430 9.541222 -8.279060 0
M  V30 64 H 9.913476 9.118915 -7.435804 0
M  V30 65 H 4.591878 5.258398 -19.475563 0
M  V30 66 H 9.774989 3.381323 -10.723485 0
M  V30 67 H 8.768988 2.836985 -12.169876 0
M  V30 68 H 8.123301 5.495561 -18.037613 0
M  V30 69 H 10.871124 5.455134 -7.206018 0
M  V30 70 H 6.348902 7.804338 -17.070194 0
M  V30 71 H 10.637805 5.008028 -12.012413 0
M  V30 END ATOM
M  V30 BEGIN BOND
M  V30 1 1 5 3
M  V30 2 1 11 2
M  V30 3 1 15 2
M  V30 4 1 15 3
M  V30 5 1 16 9
M  V30 6 1 16 13
M  V30 7 1 18 1
M  V30 8 1 19 6
M  V30 9 1 21 1
M  V30 10 1 21 11
M  V30 11 1 21 12
M  V30 12 1 22 3
M  V30 13 1 22 8
M  V30 14 1 24 8
M  V30 15 1 24 23
M  V30 16 1 25 6
M  V30 17 1 25 14
M  V30 18 1 25 17
M  V30 19 1 26 20
M  V30 20 1 27 16
M  V30 21 2 27 17
M  V30 22 1 28 4
M  V30 23 1 28 5
M  V30 24 1 28 8
M  V30 25 1 29 12
M  V30 26 1 29 15 CFG=1
M  V30 27 1 29 20
M  V30 28 1 29 26
M  V30 29 1 30 7
M  V30 30 1 30 9
M  V30 31 1 30 10
M  V30 32 1 30 14
M  V30 33 1 31 17
M  V30 34 1 31 18
M  V30 35 1 31 19
M  V30 36 1 32 1
M  V30 37 1 33 1
M  V30 38 1 34 2
M  V30 39 1 35 2
M  V30 40 1 3 36 CFG=3
M  V30 41 1 37 4
M  V30 42 1 38 4
M  V30 43 1 39 4
M  V30 44 1 40 5
M  V30 45 1 41 5
M  V30 46 1 42 6
M  V30 47 1 43 6
M  V30 48 1 8 44 CFG=3
M  V30 49 1 45 9
M  V30 50 1 46 9
M  V30 51 1 47 11
M  V30 52 1 48 11
M  V30 53 1 49 12
M  V30 54 1 50 12
M  V30 55 1 51 14
M  V30 56 1 52 14
M  V30 57 1 16 53 CFG=3
M  V30 58 1 54 18
M  V30 59 1 55 18
M  V30 60 1 56 19
M  V30 61 1 57 19
M  V30 62 1 58 20
M  V30 63 1 21 59 CFG=3
M  V30 64 1 60 23
M  V30 65 1 61 23
M  V30 66 1 62 23
M  V30 67 1 63 24
M  V30 68 1 64 24
M  V30 69 1 25 65 CFG=3
M  V30 70 1 66 26
M  V30 71 1 67 26
M  V30 72 1 68 27
M  V30 73 1 28 69 CFG=1
M  V30 74 1 31 70 CFG=3
M  V30 75 1 71 20
M  V30 END BOND
M  V30 END CTAB
M  END
>  <i_epik_Tot_Q>  (1) 
1

>  <i_epik_Tot_abs_Q>  (1) 
1

>  <i_i_glide_confnum>  (1) 
28

>  <i_i_glide_lignum>  (1) 
123

>  <i_i_glide_posenum>  (1) 
149

>  <i_i_glide_rotatable_bonds>  (1) 
5

>  <i_lp_mmshare_version>  (1) 
72125

>  <i_m_source_file_index>  (1) 
76

>  <i_f3d_flags>  (1) 
0

>  <num_sample>  (1) 
100

>  <b_lp_Chiralities_Consistent>  (1) 
1

>  <r_epik_Charging_Adjusted_Penalty>  (1) 
0.021643694203304514

>  <r_epik_Ionization_Penalty>  (1) 
0.021651518670722316

>  <r_epik_Ionization_Penalty_Charging>  (1) 
0.021643694203304514

>  <r_epik_Ionization_Penalty_Neutral>  (1) 
7.8244674178018311e-06

>  <r_epik_State_Penalty>  (1) 
-0

>  <r_glide_ring_energy>  (1) 
0

>  <r_i_docking_score>  (1) 
-5.5963942370318742

>  <r_i_glide_ecoul>  (1) 
-3.3345103865155883

>  <r_i_glide_eff_state_penalty>  (1) 
-0

>  <r_i_glide_einternal>  (1) 
8.3454090611923419

>  <r_i_glide_emodel>  (1) 
-28.876112459911141

>  <r_i_glide_emodel_strain>  (1) 
4.3626804112468562

>  <r_i_glide_energy>  (1) 
-30.503427517637874

>  <r_i_glide_erotb>  (1) 
0.38396893463604614

>  <r_i_glide_esite>  (1) 
0

>  <r_i_glide_evdw>  (1) 
-27.168917131122285

>  <r_i_glide_gscore>  (1) 
-5.5963942370318742

>  <r_i_glide_gscore_strain>  (1) 
0.090670102811714059

>  <r_i_glide_hbond>  (1) 
0

>  <r_i_glide_ligand_efficiency>  (1) 
-0.18052884635586691

>  <r_i_glide_ligand_efficiency_ln>  (1) 
-1.2621584093366145

>  <r_i_glide_ligand_efficiency_sa>  (1) 
-0.56710982514085884

>  <r_i_glide_lipo>  (1) 
-2.8290097689521274

>  <r_i_glide_metal>  (1) 
-0

>  <r_i_glide_rewards>  (1) 
-1.3834010909940542

>  <r_lp_Energy>  (1) 
29.145934999999998

>  <r_lp_tautomer_probability>  (1) 
1

>  <s_epik_Chemistry_Notes>  (1) 
This compound contains an acetal/aminal-like group ( X-CH(R)-Y where X, Y are N, S, or O) that may be acid/base labile, releasing an aldehyde.

>  <s_epik_cmdline>  (1) 
J2VwaWtfcHl0aG9uJywgJy1waHQnLCAnMS4wJywgJy1waCcsICc3LjQnLCAnLXRuJywgJzgnLCAnLW1hJywgJzUwMCcsICctaW1hZScsICc8aW5maWxlLm1hZT4nLCAnLW9tYWUnLCAnPG91dGZpbGUubWFlPic=

>  <s_epik_input>  (1) 
W0NIM11bQ0gyXVtDQEhdKFMxKVtDQEBIXShbQ0gzXSlbQ0gyXVtDQEhdMU4yW0NIMl1bQ0gyXVtDQEBIXShbQ0gyXVtDQEBdMjNbTkhdW0NIMl0zKVtDSDJdW0NIMl1bQ0BASF00W0NIMl1bQ0gyXVtDQEhdKEM0PTUpW0NIMl1DKEYpKEYpW0NIMl1bQ0BASF0oRilbQ0hdNQ==

>  <s_glide_docking_method>  (1) 
confgen

>  <s_i_glide_gridfile>  (1) 
gpcr_drd2_6luq_protein_autoprepared_prepared

>  <s_lp_Force_Field>  (1) 
S-OPLS

>  <s_lp_Variant>  (1) 
DiffSBDD_75-1

>  <s_m_source_file>  (1) 
generated_generic_title2_ligand_DiffSBDD_2026-06-23_prepared.sdf

>  <GenAI_Model>  (1) 
DiffSBDD

>  <Protein>  (1) 
generic_title2

$$$$
DiffSBDD_51
     RDKit          3D

  0  0  0  0  0  0  0  0  0  0999 V3000
M  V30 BEGIN CTAB
M  V30 COUNTS 67 70 0 0 1
M  V30 BEGIN ATOM
M  V30 1 C 10.795870 8.078636 -5.971691 0
M  V30 2 C 8.421214 6.724000 -11.584953 0
M  V30 3 C 9.935947 7.121667 -8.150251 0
M  V30 4 C 8.979472 6.096446 -10.273161 0 CFG=1
M  V30 5 C 9.063070 0.931128 -17.931627 0
M  V30 6 N 9.919267 0.006099 -20.009079 0
M  V30 7 C 5.720361 3.594540 -13.320854 0
M  V30 8 N 7.433180 5.857930 -12.235292 0
M  V30 9 C 5.973987 0.065809 -15.887577 0
M  V30 10 C 10.887967 7.908376 -7.473478 0
M  V30 11 C 7.002389 0.048247 -16.957409 0
M  V30 12 C 7.861582 -0.881117 -19.045539 0
M  V30 13 C 6.889810 -0.865317 -18.027221 0
M  V30 14 C 7.473179 5.815152 -13.693311 0 CFG=2
M  V30 15 C 6.441878 7.064702 -15.432323 0
M  V30 16 N 6.975409 2.199252 -15.002524 0
M  V30 17 C 9.471294 4.660601 -10.501779 0
M  V30 18 C 6.465460 5.190195 -11.495914 0
M  V30 19 C 6.284892 0.925628 -14.650286 0 CFG=2
M  V30 20 C 8.090271 0.951535 -16.910485 0
M  V30 21 C 11.054540 7.590226 -10.271180 0
M  V30 22 O 4.909476 -0.543324 -15.985024 0
M  V30 23 C 8.222931 1.940003 -15.759689 0
M  V30 24 C 9.910177 -0.809752 -21.080487 0
M  V30 25 N 9.943119 -1.528886 -21.986009 0
M  V30 26 O 6.283285 6.263626 -14.273218 0
M  V30 27 N 7.011181 3.250760 -13.966094 0
M  V30 28 C 11.923714 8.535201 -8.194628 0
M  V30 29 C 7.064006 0.105198 -13.602261 0
M  V30 30 C 10.015825 6.958735 -9.550502 0
M  V30 31 C 5.680828 4.198274 -11.931238 0
M  V30 32 C 12.006307 8.377288 -9.591438 0
M  V30 33 C 7.872588 4.428036 -14.253355 0
M  V30 34 C 8.951057 0.017185 -18.999437 0
M  V30 35 H 11.512467 8.813915 -5.605175 0
M  V30 36 H 10.989097 7.128285 -5.473096 0
M  V30 37 H 9.794556 8.410602 -5.697173 0
M  V30 38 H 9.250312 6.907898 -12.266064 0
M  V30 39 H 7.967738 7.694289 -11.384339 0
M  V30 40 H 9.141316 6.641757 -7.595618 0
M  V30 41 H 8.174962 5.990242 -9.549905 0
M  V30 42 H 9.895744 1.618465 -17.895247 0
M  V30 43 H 10.669121 0.675426 -19.915986 0
M  V30 44 H 5.122594 4.213758 -13.985038 0
M  V30 45 H 5.135727 2.696272 -13.185037 0
M  V30 46 H 7.770536 -1.581929 -19.861794 0
M  V30 47 H 6.057984 -1.554749 -18.066664 0
M  V30 48 H 8.238411 6.527859 -13.994628 0
M  V30 49 H 5.461821 7.338758 -15.822656 0
M  V30 50 H 6.975417 6.530044 -16.218461 0
M  V30 51 H 6.975412 7.986978 -15.197932 0
M  V30 52 H 9.916713 4.250051 -9.597067 0
M  V30 53 H 10.175411 4.611653 -11.326837 0
M  V30 54 H 8.658632 3.990018 -10.768967 0
M  V30 55 H 6.389347 5.540373 -10.478228 0
M  V30 56 H 5.311457 1.137616 -14.225054 0
M  V30 57 H 11.124431 7.468601 -11.340961 0
M  V30 58 H 8.623437 2.858258 -16.182736 0
M  V30 59 H 8.967112 1.534243 -15.081229 0
M  V30 60 H 12.654822 9.138094 -7.676958 0
M  V30 61 H 6.502169 -0.779478 -13.300766 0
M  V30 62 H 7.252918 0.690148 -12.701732 0
M  V30 63 H 8.024179 -0.241393 -13.985035 0
M  V30 64 H 4.975410 3.765759 -11.246406 0
M  V30 65 H 12.800901 8.859340 -10.142319 0
M  V30 66 H 7.907281 4.579144 -15.330146 0
M  V30 67 H 8.888553 4.202555 -13.927316 0
M  V30 END ATOM
M  V30 BEGIN BOND
M  V30 1 1 4 2
M  V30 2 1 8 2
M  V30 3 1 10 1
M  V30 4 2 10 3
M  V30 5 1 11 9
M  V30 6 1 13 11
M  V30 7 2 13 12
M  V30 8 1 14 8
M  V30 9 1 17 4
M  V30 10 1 18 8
M  V30 11 1 19 9
M  V30 12 1 19 16
M  V30 13 1 20 5
M  V30 14 2 20 11
M  V30 15 2 22 9
M  V30 16 1 23 16
M  V30 17 1 23 20
M  V30 18 1 24 6
M  V30 19 3 25 24
M  V30 20 1 26 14
M  V30 21 1 26 15
M  V30 22 1 27 7
M  V30 23 1 27 16
M  V30 24 1 28 10
M  V30 25 1 29 19
M  V30 26 1 30 3
M  V30 27 1 30 4
M  V30 28 2 30 21
M  V30 29 1 31 7
M  V30 30 2 31 18
M  V30 31 1 32 21
M  V30 32 2 32 28
M  V30 33 1 33 14
M  V30 34 1 33 27
M  V30 35 2 34 5
M  V30 36 1 34 6
M  V30 37 1 34 12
M  V30 38 1 35 1
M  V30 39 1 36 1
M  V30 40 1 37 1
M  V30 41 1 38 2
M  V30 42 1 39 2
M  V30 43 1 40 3
M  V30 44 1 4 41 CFG=1
M  V30 45 1 42 5
M  V30 46 1 43 6
M  V30 47 1 44 7
M  V30 48 1 45 7
M  V30 49 1 46 12
M  V30 50 1 47 13
M  V30 51 1 14 48 CFG=3
M  V30 52 1 49 15
M  V30 53 1 50 15
M  V30 54 1 51 15
M  V30 55 1 52 17
M  V30 56 1 53 17
M  V30 57 1 54 17
M  V30 58 1 55 18
M  V30 59 1 19 56 CFG=1
M  V30 60 1 57 21
M  V30 61 1 58 23
M  V30 62 1 59 23
M  V30 63 1 60 28
M  V30 64 1 61 29
M  V30 65 1 62 29
M  V30 66 1 63 29
M  V30 67 1 64 31
M  V30 68 1 65 32
M  V30 69 1 66 33
M  V30 70 1 67 33
M  V30 END BOND
M  V30 END CTAB
M  END
>  <i_epik_Tot_Q>  (1) 
0

>  <i_epik_Tot_abs_Q>  (1) 
0

>  <i_i_glide_confnum>  (1) 
125

>  <i_i_glide_lignum>  (1) 
81

>  <i_i_glide_posenum>  (1) 
98

>  <i_i_glide_rotatable_bonds>  (1) 
6

>  <i_lp_mmshare_version>  (1) 
72125

>  <i_m_source_file_index>  (1) 
52

>  <i_f3d_flags>  (1) 
0

>  <num_sample>  (1) 
100

>  <b_lp_Chiralities_Consistent>  (1) 
1

>  <r_epik_Charging_Adjusted_Penalty>  (1) 
7.4502254237452924e-08

>  <r_epik_Ionization_Penalty>  (1) 
0.00022335133816854321

>  <r_epik_Ionization_Penalty_Charging>  (1) 
7.4502254237452924e-08

>  <r_epik_Ionization_Penalty_Neutral>  (1) 
0.00022327683591430577

>  <r_epik_State_Penalty>  (1) 
-0

>  <r_glide_ring_energy>  (1) 
0

>  <r_i_docking_score>  (1) 
-5.5959179076724226

>  <r_i_glide_ecoul>  (1) 
-1.2483962594597213

>  <r_i_glide_eff_state_penalty>  (1) 
-0

>  <r_i_glide_einternal>  (1) 
7.1092381846280004

>  <r_i_glide_emodel>  (1) 
-50.856936005809956

>  <r_i_glide_emodel_strain>  (1) 
0.44755234595437798

>  <r_i_glide_energy>  (1) 
-42.782025402123423

>  <r_i_glide_erotb>  (1) 
0.47630443723403276

>  <r_i_glide_esite>  (1) 
-0.040012636226674787

>  <r_i_glide_evdw>  (1) 
-41.533629142663699

>  <r_i_glide_gscore>  (1) 
-5.5959179076724226

>  <r_i_glide_gscore_strain>  (1) 
0

>  <r_i_glide_hbond>  (1) 
0

>  <r_i_glide_ligand_efficiency>  (1) 
-0.16458582081389478

>  <r_i_glide_ligand_efficiency_ln>  (1) 
-1.2362952259855529

>  <r_i_glide_ligand_efficiency_sa>  (1) 
-0.53319416743163484

>  <r_i_glide_lipo>  (1) 
-2.2928204846722715

>  <r_i_glide_metal>  (1) 
-0

>  <r_i_glide_rewards>  (1) 
-1.4754483279553665

>  <r_lp_Energy>  (1) 
50.225366999999999

>  <r_lp_tautomer_probability>  (1) 
1

>  <s_epik_Chemistry_Notes>  (1) 
This compound has an imine and may undergo hydrolysis. This compound contains an acetal/aminal-like group ( X-CH(R)-Y where X, Y are N, S, or O) that may be acid/base labile, releasing an aldehyde.

>  <s_epik_cmdline>  (1) 
J2VwaWtfcHl0aG9uJywgJy1waHQnLCAnMS4wJywgJy1waCcsICc3LjQnLCAnLXRuJywgJzgnLCAnLW1hJywgJzUwMCcsICctaW1hZScsICc8aW5maWxlLm1hZT4nLCAnLW9tYWUnLCAnPG91dGZpbGUubWFlPic=

>  <s_epik_input>  (1) 
W0NIM11jMVtjSF1jKFtjSF1bY0hdW2NIXTEpW0NASF0oW0NIM10pW0NIMl1OMltDQEBIXShPW0NIM10pW0NIMl1OKFtDSDJdW0NIXT1bQ0hdMilOKFtDQEBIXShDMz1PKVtDSDNdKVtDSDJdYyhjMzQpW2NIXWMoW05IXUMjTilbY0hdW2NIXTQ=

>  <s_glide_docking_method>  (1) 
confgen

>  <s_i_glide_gridfile>  (1) 
gpcr_drd2_6luq_protein_autoprepared_prepared

>  <s_lp_Force_Field>  (1) 
S-OPLS

>  <s_lp_Variant>  (1) 
DiffSBDD_51-2

>  <s_m_source_file>  (1) 
generated_generic_title2_ligand_DiffSBDD_2026-06-23_prepared.sdf

>  <GenAI_Model>  (1) 
DiffSBDD

>  <Protein>  (1) 
generic_title2

$$$$
DiffSBDD_45
     RDKit          3D

  0  0  0  0  0  0  0  0  0  0999 V3000
M  V30 BEGIN CTAB
M  V30 COUNTS 68 71 0 0 1
M  V30 BEGIN ATOM
M  V30 1 C 8.079436 5.831974 -13.758194 0 CFG=2
M  V30 2 C 4.579250 8.345892 -15.706028 0
M  V30 3 C 11.225581 7.794295 -5.161360 0 CFG=2
M  V30 4 C 8.128298 5.095749 -12.417072 0
M  V30 5 C 6.633687 6.038709 -14.282131 0 CFG=2
M  V30 6 C 11.464622 10.010460 -3.161798 0
M  V30 7 C 8.699716 4.884186 -9.973965 0
M  V30 8 O 8.961449 5.267106 -14.736646 0
M  V30 9 C 6.595930 6.867119 -15.582952 0
M  V30 10 N 12.175397 7.751732 -4.036741 0
M  V30 11 C 13.033484 8.529244 -1.980487 0
M  V30 12 C 10.336834 8.013077 -9.090558 0
M  V30 13 C 9.699144 7.026603 -9.769037 0
M  V30 14 C 9.694796 5.675875 -7.863296 0
M  V30 15 C 12.275693 7.249398 -1.724664 0
M  V30 16 N 9.343324 5.865541 -9.172157 0
M  V30 17 O 12.975405 8.790226 -7.185025 0
M  V30 18 C 12.571475 8.990492 -3.355324 0 CFG=2
M  V30 19 N 10.656166 7.862010 -7.700745 0
M  V30 20 O 5.878897 6.692303 -13.278843 0
M  V30 21 C 11.854026 6.711044 -3.065074 0
M  V30 22 C 5.189928 6.963166 -17.721206 0
M  V30 23 C 5.190472 7.028377 -16.186792 0
M  V30 24 C 9.313225 7.059137 -11.234713 0
M  V30 25 C 8.581362 4.071969 -15.411842 0
M  V30 26 C 10.799559 6.420584 -5.710876 0
M  V30 27 C 8.671145 5.637431 -11.298441 0
M  V30 28 O 10.975421 10.113671 -6.384992 0
M  V30 29 S 11.605737 8.831739 -6.660796 0
M  V30 30 C 10.340165 6.604342 -7.139807 0
M  V30 31 C 7.512789 3.702611 -12.402069 0
M  V30 32 H 8.479016 6.826874 -13.586112 0
M  V30 33 H 5.175136 9.190186 -16.043160 0
M  V30 34 H 3.555671 8.460349 -16.061735 0
M  V30 35 H 4.575419 8.390233 -14.620558 0
M  V30 36 H 10.310040 8.239951 -4.785847 0
M  V30 37 H 6.142652 5.087109 -14.474362 0
M  V30 38 H 11.744732 10.727253 -2.385030 0
M  V30 39 H 11.205714 10.556309 -4.062724 0
M  V30 40 H 10.575408 9.590226 -2.785029 0
M  V30 41 H 7.700415 4.655215 -9.600956 0
M  V30 42 H 9.314978 3.990221 -10.044068 0
M  V30 43 H 7.025537 7.850591 -15.396011 0
M  V30 44 H 7.243818 6.390186 -16.316635 0
M  V30 45 H 12.832624 9.238443 -1.179849 0
M  V30 46 H 14.102026 8.390242 -1.985007 0
M  V30 47 H 10.645270 8.951703 -9.527644 0
M  V30 48 H 9.424299 4.716400 -7.475194 0
M  V30 49 H 11.359531 7.487333 -1.185020 0
M  V30 50 H 12.870084 6.514797 -1.185020 0
M  V30 51 H 13.385045 9.468740 -3.898893 0
M  V30 52 H 6.372041 7.430016 -12.952046 0
M  V30 53 H 10.796339 6.447608 -3.039903 0
M  V30 54 H 12.401554 5.799809 -3.291543 0
M  V30 55 H 5.775440 7.771080 -18.157258 0
M  V30 56 H 5.597394 6.017593 -18.079462 0
M  V30 57 H 4.176456 7.044990 -18.111931 0
M  V30 58 H 4.575416 6.197751 -15.844789 0
M  V30 59 H 10.189376 7.146944 -11.876450 0
M  V30 60 H 8.592657 7.851661 -11.432485 0
M  V30 61 H 8.566535 3.207237 -14.753213 0
M  V30 62 H 9.324134 3.865868 -16.182752 0
M  V30 63 H 7.619034 4.148963 -15.915104 0
M  V30 64 H 9.994714 5.990202 -5.117239 0
M  V30 65 H 11.641513 5.725832 -5.717375 0
M  V30 66 H 8.297324 2.946075 -12.375299 0
M  V30 67 H 6.879062 3.590251 -11.524385 0
M  V30 68 H 6.878752 3.493919 -13.259115 0
M  V30 END ATOM
M  V30 BEGIN BOND
M  V30 1 1 4 1
M  V30 2 1 5 1
M  V30 3 1 8 1
M  V30 4 1 9 5
M  V30 5 1 10 3
M  V30 6 2 13 12
M  V30 7 1 15 11
M  V30 8 1 16 7
M  V30 9 1 16 13
M  V30 10 1 16 14
M  V30 11 1 18 6
M  V30 12 1 18 10
M  V30 13 1 18 11
M  V30 14 1 19 12
M  V30 15 1 20 5
M  V30 16 1 21 10
M  V30 17 1 21 15
M  V30 18 1 23 2
M  V30 19 1 23 9
M  V30 20 1 23 22
M  V30 21 1 24 13
M  V30 22 1 25 8
M  V30 23 1 26 3
M  V30 24 2 27 4
M  V30 25 1 27 7
M  V30 26 1 27 24
M  V30 27 1 29 3
M  V30 28 2 29 17
M  V30 29 1 29 19
M  V30 30 2 29 28
M  V30 31 2 30 14
M  V30 32 1 30 19
M  V30 33 1 30 26
M  V30 34 1 31 4
M  V30 35 1 1 32 CFG=1
M  V30 36 1 33 2
M  V30 37 1 34 2
M  V30 38 1 35 2
M  V30 39 1 3 36 CFG=1
M  V30 40 1 5 37 CFG=3
M  V30 41 1 38 6
M  V30 42 1 39 6
M  V30 43 1 40 6
M  V30 44 1 41 7
M  V30 45 1 42 7
M  V30 46 1 43 9
M  V30 47 1 44 9
M  V30 48 1 45 11
M  V30 49 1 46 11
M  V30 50 1 47 12
M  V30 51 1 48 14
M  V30 52 1 49 15
M  V30 53 1 50 15
M  V30 54 1 18 51 CFG=3
M  V30 55 1 52 20
M  V30 56 1 53 21
M  V30 57 1 54 21
M  V30 58 1 55 22
M  V30 59 1 56 22
M  V30 60 1 57 22
M  V30 61 1 58 23
M  V30 62 1 59 24
M  V30 63 1 60 24
M  V30 64 1 61 25
M  V30 65 1 62 25
M  V30 66 1 63 25
M  V30 67 1 64 26
M  V30 68 1 65 26
M  V30 69 1 66 31
M  V30 70 1 67 31
M  V30 71 1 68 31
M  V30 END BOND
M  V30 END CTAB
M  END
>  <i_epik_Tot_Q>  (1) 
0

>  <i_epik_Tot_abs_Q>  (1) 
0

>  <i_i_glide_confnum>  (1) 
48

>  <i_i_glide_lignum>  (1) 
73

>  <i_i_glide_posenum>  (1) 
20

>  <i_i_glide_rotatable_bonds>  (1) 
7

>  <i_lp_mmshare_version>  (1) 
72125

>  <i_m_source_file_index>  (1) 
46

>  <i_f3d_flags>  (1) 
0

>  <num_sample>  (1) 
100

>  <b_lp_Chiralities_Consistent>  (1) 
1

>  <r_epik_Charging_Adjusted_Penalty>  (1) 
5.5386030856760706e-14

>  <r_epik_Ionization_Penalty>  (1) 
0.0003901755545231811

>  <r_epik_Ionization_Penalty_Charging>  (1) 
5.5386030856760706e-14

>  <r_epik_Ionization_Penalty_Neutral>  (1) 
0.00039017555446779507

>  <r_epik_State_Penalty>  (1) 
-0

>  <r_glide_ring_energy>  (1) 
2.212502676076058

>  <r_i_docking_score>  (1) 
-5.589276279212787

>  <r_i_glide_ecoul>  (1) 
-1.0857809769751345

>  <r_i_glide_eff_state_penalty>  (1) 
-0

>  <r_i_glide_einternal>  (1) 
3.7325283177969251

>  <r_i_glide_emodel>  (1) 
-23.517919124557451

>  <r_i_glide_emodel_strain>  (1) 
1.4452917193632686

>  <r_i_glide_energy>  (1) 
-25.777090689311521

>  <r_i_glide_erotb>  (1) 
0.39335991316148761

>  <r_i_glide_esite>  (1) 
-0.073023780896004878

>  <r_i_glide_evdw>  (1) 
-24.691309712336388

>  <r_i_glide_gscore>  (1) 
-5.589276279212787

>  <r_i_glide_gscore_strain>  (1) 
0

>  <r_i_glide_hbond>  (1) 
0

>  <r_i_glide_ligand_efficiency>  (1) 
-0.18029923481331572

>  <r_i_glide_ligand_efficiency_ln>  (1) 
-1.2605530917092007

>  <r_i_glide_ligand_efficiency_sa>  (1) 
-0.56638852788352279

>  <r_i_glide_lipo>  (1) 
-3.3347158048809296

>  <r_i_glide_metal>  (1) 
-0

>  <r_i_glide_rewards>  (1) 
-1.177463974434251

>  <r_lp_Energy>  (1) 
35.233378000000002

>  <r_lp_tautomer_probability>  (1) 
1

>  <s_epik_Chemistry_Notes>  (1) 
This compound has an imine and may undergo hydrolysis.

>  <s_epik_cmdline>  (1) 
J2VwaWtfcHl0aG9uJywgJy1waHQnLCAnMS4wJywgJy1waCcsICc3LjQnLCAnLXRuJywgJzgnLCAnLW1hJywgJzUwMCcsICctaW1hZScsICc8aW5maWxlLm1hZT4nLCAnLW9tYWUnLCAnPG91dGZpbGUubWFlPic=

>  <s_epik_input>  (1) 
W0NIM11bQ0hdKFtDSDNdKVtDSDJdW0NASF0oW09IXSlbQ0BIXShPW0NIM10pL0MoW0NIM10pPUMoW0NIMl0xKS9bQ0gyXU4oQzEyKVtDSF09QzNOKFtDSF09MilTKD1PKSg9TylbQ0BASF0oW0NIMl0zKU40W0NAQEhdKFtDSDNdKVtDSDJdW0NIMl1bQ0gyXTQ=

>  <s_glide_docking_method>  (1) 
confgen

>  <s_i_glide_gridfile>  (1) 
gpcr_drd2_6luq_protein_autoprepared_prepared

>  <s_lp_Force_Field>  (1) 
S-OPLS

>  <s_lp_Variant>  (1) 
DiffSBDD_45-1

>  <s_m_source_file>  (1) 
generated_generic_title2_ligand_DiffSBDD_2026-06-23_prepared.sdf

>  <GenAI_Model>  (1) 
DiffSBDD

>  <Protein>  (1) 
generic_title2

$$$$
DiffSBDD_7
     RDKit          3D

  0  0  0  0  0  0  0  0  0  0999 V3000
M  V30 BEGIN CTAB
M  V30 COUNTS 63 65 0 0 1
M  V30 BEGIN ATOM
M  V30 1 C 6.498543 5.777456 -15.734365 0
M  V30 2 C 7.187639 5.252843 -16.849147 0
M  V30 3 C 7.623186 5.138919 -19.351707 0
M  V30 4 C 11.069048 6.619249 -4.302177 0
M  V30 5 F 7.998054 3.880134 -19.126167 0
M  V30 6 C 10.169654 6.574483 -6.705463 0
M  V30 7 N 8.713894 6.616641 -11.491185 0
M  V30 8 C 11.761862 8.389333 -6.068777 0 CFG=1
M  V30 9 C 11.323081 7.910019 -8.578082 0 CFG=2
M  V30 10 C 7.268398 4.704332 -11.148455 0
M  V30 11 C 6.359563 3.134520 -12.797549 0
M  V30 12 C 6.014117 3.969825 -14.039939 0
M  V30 13 C 10.619333 6.583304 -8.178668 0 CFG=2
M  V30 14 C 12.299326 8.439722 -7.508132 0
M  V30 15 F 10.731571 9.218632 -5.907421 0
M  V30 16 C 6.885358 5.711509 -18.149980 0
M  V30 17 C 8.952577 7.919966 -12.112039 0
M  V30 18 F 6.845945 5.149990 -20.435248 0
M  V30 19 C 11.342260 6.934794 -5.775791 0 CFG=1
M  V30 20 S 6.565179 6.525639 -13.050478 0
M  V30 21 C 9.451699 6.165179 -9.103201 0
M  V30 22 C 6.061939 3.873741 -11.489461 0
M  V30 23 C 9.775233 6.126233 -10.615991 0
M  V30 24 C 6.815666 5.254255 -14.329558 0 CFG=2
M  V30 25 C 10.355841 9.009690 -8.979619 0
M  V30 26 C 5.508545 6.769431 -15.927165 0
M  V30 27 C 5.210731 7.227795 -17.223564 0
M  V30 28 F 8.706795 5.873976 -19.592807 0
M  V30 29 C 7.577141 5.857132 -11.762081 0
M  V30 30 C 5.895879 6.701250 -18.333694 0
M  V30 31 H 7.943610 4.495240 -16.707282 0
M  V30 32 H 10.020420 6.390361 -4.126120 0
M  V30 33 H 11.629563 5.736785 -3.996990 0
M  V30 34 H 11.375621 7.429890 -3.643076 0
M  V30 35 H 9.333489 7.259802 -6.554519 0
M  V30 36 H 9.786713 5.590306 -6.455177 0
M  V30 37 H 12.510786 8.790145 -5.378887 0
M  V30 38 H 11.934121 7.720757 -9.460352 0
M  V30 39 H 7.912380 4.314419 -10.379581 0
M  V30 40 H 5.774972 2.216607 -12.827365 0
M  V30 41 H 7.402227 2.810944 -12.836958 0
M  V30 42 H 4.956083 4.219138 -13.985398 0
M  V30 43 H 6.175387 3.311102 -14.892190 0
M  V30 44 H 11.375383 5.811681 -8.248132 0
M  V30 45 H 12.575489 9.461572 -7.729331 0
M  V30 46 H 13.218388 7.862822 -7.585159 0
M  V30 47 H 8.758728 7.896870 -13.179766 0
M  V30 48 H 8.298702 8.673258 -11.670788 0
M  V30 49 H 9.981245 8.253867 -12.001508 0
M  V30 50 H 12.174907 6.284961 -6.050514 0
M  V30 51 H 8.588207 6.790236 -8.908493 0
M  V30 52 H 9.127007 5.172770 -8.793464 0
M  V30 53 H 5.850802 3.189926 -10.669424 0
M  V30 54 H 5.173188 4.498828 -11.582725 0
M  V30 55 H 10.007908 5.103451 -10.914374 0
M  V30 56 H 10.677381 6.692942 -10.831257 0
M  V30 57 H 7.880667 5.014160 -14.316951 0
M  V30 58 H 9.639863 9.190194 -8.179760 0
M  V30 59 H 10.932568 9.906894 -9.212734 0
M  V30 60 H 9.771867 8.768111 -9.856458 0
M  V30 61 H 4.975569 7.176394 -15.083255 0
M  V30 62 H 4.452986 7.985516 -17.366472 0
M  V30 63 H 5.661470 7.054908 -19.327421 0
M  V30 END ATOM
M  V30 BEGIN BOND
M  V30 1 2 2 1
M  V30 2 1 5 3
M  V30 3 1 12 11
M  V30 4 1 13 6
M  V30 5 1 13 9
M  V30 6 1 14 8
M  V30 7 1 14 9
M  V30 8 1 15 8
M  V30 9 1 16 2
M  V30 10 1 16 3
M  V30 11 1 17 7
M  V30 12 1 18 3
M  V30 13 1 19 4
M  V30 14 1 19 6
M  V30 15 1 19 8
M  V30 16 1 21 13
M  V30 17 1 22 10
M  V30 18 1 22 11
M  V30 19 1 23 7
M  V30 20 1 23 21
M  V30 21 1 24 1
M  V30 22 1 24 12
M  V30 23 1 24 20
M  V30 24 1 25 9
M  V30 25 1 26 1
M  V30 26 2 27 26
M  V30 27 1 28 3
M  V30 28 1 29 7
M  V30 29 2 29 10
M  V30 30 1 29 20
M  V30 31 2 30 16
M  V30 32 1 30 27
M  V30 33 1 31 2
M  V30 34 1 32 4
M  V30 35 1 33 4
M  V30 36 1 34 4
M  V30 37 1 35 6
M  V30 38 1 36 6
M  V30 39 1 8 37 CFG=1
M  V30 40 1 9 38 CFG=3
M  V30 41 1 39 10
M  V30 42 1 40 11
M  V30 43 1 41 11
M  V30 44 1 42 12
M  V30 45 1 43 12
M  V30 46 1 13 44 CFG=1
M  V30 47 1 45 14
M  V30 48 1 46 14
M  V30 49 1 47 17
M  V30 50 1 48 17
M  V30 51 1 49 17
M  V30 52 1 19 50 CFG=3
M  V30 53 1 51 21
M  V30 54 1 52 21
M  V30 55 1 53 22
M  V30 56 1 54 22
M  V30 57 1 55 23
M  V30 58 1 56 23
M  V30 59 1 24 57 CFG=3
M  V30 60 1 58 25
M  V30 61 1 59 25
M  V30 62 1 60 25
M  V30 63 1 61 26
M  V30 64 1 62 27
M  V30 65 1 63 30
M  V30 END BOND
M  V30 END CTAB
M  END
>  <i_epik_Tot_Q>  (1) 
0

>  <i_epik_Tot_abs_Q>  (1) 
0

>  <i_i_glide_confnum>  (1) 
110

>  <i_i_glide_lignum>  (1) 
10

>  <i_i_glide_posenum>  (1) 
32

>  <i_i_glide_rotatable_bonds>  (1) 
6

>  <i_lp_mmshare_version>  (1) 
72125

>  <i_m_source_file_index>  (1) 
8

>  <i_f3d_flags>  (1) 
0

>  <num_sample>  (1) 
100

>  <b_lp_Chiralities_Consistent>  (1) 
1

>  <r_epik_Charging_Adjusted_Penalty>  (1) 
4.04831774087807e-08

>  <r_epik_Ionization_Penalty>  (1) 
4.3565120574992374e-05

>  <r_epik_Ionization_Penalty_Charging>  (1) 
4.04831774087807e-08

>  <r_epik_Ionization_Penalty_Neutral>  (1) 
4.3524637397583592e-05

>  <r_epik_State_Penalty>  (1) 
-0

>  <r_glide_ring_energy>  (1) 
0

>  <r_i_docking_score>  (1) 
-5.5864331251491013

>  <r_i_glide_ecoul>  (1) 
1.4809956545932681

>  <r_i_glide_eff_state_penalty>  (1) 
-0

>  <r_i_glide_einternal>  (1) 
10.537566561632003

>  <r_i_glide_emodel>  (1) 
-24.156223386913929

>  <r_i_glide_emodel_strain>  (1) 
3.9737761995603691

>  <r_i_glide_energy>  (1) 
-26.931832896711466

>  <r_i_glide_erotb>  (1) 
0.50801221273644082

>  <r_i_glide_esite>  (1) 
-0.074040904590177967

>  <r_i_glide_evdw>  (1) 
-28.412828551304735

>  <r_i_glide_gscore>  (1) 
-5.5864331251491013

>  <r_i_glide_gscore_strain>  (1) 
0

>  <r_i_glide_hbond>  (1) 
0

>  <r_i_glide_ligand_efficiency>  (1) 
-0.18621443750497005

>  <r_i_glide_ligand_efficiency_ln>  (1) 
-1.2692984750980036

>  <r_i_glide_ligand_efficiency_sa>  (1) 
-0.57861155329335634

>  <r_i_glide_lipo>  (1) 
-3.092866727780275

>  <r_i_glide_metal>  (1) 
-0

>  <r_i_glide_rewards>  (1) 
-1.7290456261388423

>  <r_lp_Energy>  (1) 
42.291399999999996

>  <r_lp_tautomer_probability>  (1) 
1

>  <s_epik_Chemistry_Notes>  (1) 
This compound has an imine and may undergo hydrolysis.

>  <s_epik_cmdline>  (1) 
J2VwaWtfcHl0aG9uJywgJy1waHQnLCAnMS4wJywgJy1waCcsICc3LjQnLCAnLXRuJywgJzgnLCAnLW1hJywgJzUwMCcsICctaW1hZScsICc8aW5maWxlLm1hZT4nLCAnLW9tYWUnLCAnPG91dGZpbGUubWFlPic=

>  <s_epik_input>  (1) 
W2NIXTFbY0hdW2NIXWMoQyhGKShGKUYpW2NIXWMxW0NAQEhdMltDSDJdW0NIMl1bQ0gyXVtDSF09QyhTMilOKFtDSDNdKVtDSDJdW0NIMl1bQ0BIXShbQ0gyXVtDQEBIXTNbQ0gzXSlbQ0BASF0oW0NIM10pW0NIMl1bQ0BIXTNG

>  <s_glide_docking_method>  (1) 
confgen

>  <s_i_glide_gridfile>  (1) 
gpcr_drd2_6luq_protein_autoprepared_prepared

>  <s_lp_Force_Field>  (1) 
S-OPLS

>  <s_lp_Variant>  (1) 
DiffSBDD_7-1

>  <s_m_source_file>  (1) 
generated_generic_title2_ligand_DiffSBDD_2026-06-23_prepared.sdf

>  <GenAI_Model>  (1) 
DiffSBDD

>  <Protein>  (1) 
generic_title2

$$$$
DiffSBDD_39
     RDKit          3D

  0  0  0  0  0  0  0  0  0  0999 V3000
M  V30 BEGIN CTAB
M  V30 COUNTS 48 49 0 0 1
M  V30 BEGIN ATOM
M  V30 1 C 10.972508 7.406867 -5.181144 0
M  V30 2 C 12.575481 8.359173 -2.665998 0
M  V30 3 O 5.790365 0.792340 -13.153588 0
M  V30 4 C 7.077994 1.210237 -13.552358 0
M  V30 5 C 7.163394 1.772291 -14.945090 0
M  V30 6 C 9.203847 5.750141 -9.774600 0
M  V30 7 C 12.373933 7.093737 -3.120067 0
M  V30 8 C 11.923282 9.579766 -3.129349 0
M  V30 9 C 10.370280 6.464890 -7.545485 0
M  V30 10 C 11.408086 8.807282 -5.461846 0
M  V30 11 C 11.378888 9.774385 -4.337679 0
M  V30 12 C 6.468217 4.383279 -12.016433 0
M  V30 13 C 11.444083 6.661455 -4.167852 0
M  V30 14 C 7.364805 2.685830 -13.744179 0 CFG=1
M  V30 15 C 9.931666 6.854009 -6.131225 0
M  V30 16 C 9.104708 5.977522 -8.265022 0
M  V30 17 N 7.845012 5.588981 -10.329601 0 CHG=1
M  V30 18 O 8.165105 0.397513 -13.184998 0
M  V30 19 C 6.360707 3.792319 -13.436895 0
M  V30 20 C 7.783023 5.137313 -11.735041 0
M  V30 21 H 13.252953 8.466147 -1.831241 0
M  V30 22 H 5.601180 -0.036821 -13.574633 0
M  V30 23 H 8.043021 1.528939 -15.538552 0
M  V30 24 H 6.236266 1.846725 -15.508030 0
M  V30 25 H 9.787357 4.851624 -9.969242 0
M  V30 26 H 9.697697 6.590516 -10.264105 0
M  V30 27 H 12.907072 6.310564 -2.601032 0
M  V30 28 H 11.881605 10.396471 -2.430683 0
M  V30 29 H 11.128034 5.681942 -7.515324 0
M  V30 30 H 10.800913 7.325307 -8.058889 0
M  V30 31 H 12.402109 8.801320 -5.904931 0
M  V30 32 H 10.758816 9.225708 -6.232140 0
M  V30 33 H 10.924741 10.731066 -4.553799 0
M  V30 34 H 5.630416 5.064879 -11.862399 0
M  V30 35 H 6.333719 3.587425 -11.284705 0
M  V30 36 H 11.085713 5.644470 -4.103546 0
M  V30 37 H 8.397616 2.990775 -13.588207 0
M  V30 38 H 9.136874 7.600040 -6.185173 0
M  V30 39 H 9.462483 5.993889 -5.657277 0
M  V30 40 H 8.340883 6.728786 -8.079502 0
M  V30 41 H 8.742006 5.065535 -7.787749 0
M  V30 42 H 7.374458 6.493638 -10.195026 0
M  V30 43 H 8.544762 0.740316 -12.386866 0
M  V30 44 H 6.483040 4.585922 -14.174280 0
M  V30 45 H 5.354036 3.400297 -13.577161 0
M  V30 46 H 8.630309 4.480709 -11.931666 0
M  V30 47 H 7.890397 5.998864 -12.395311 0
M  V30 48 H 7.359644 4.913168 -9.758197 0
M  V30 END ATOM
M  V30 BEGIN BOND
M  V30 1 1 4 3
M  V30 2 1 5 4
M  V30 3 2 7 2
M  V30 4 1 8 2
M  V30 5 1 10 1
M  V30 6 2 11 8
M  V30 7 1 11 10
M  V30 8 2 13 1
M  V30 9 1 13 7
M  V30 10 1 14 4
M  V30 11 1 14 5
M  V30 12 1 15 1
M  V30 13 1 15 9
M  V30 14 1 16 6
M  V30 15 1 16 9
M  V30 16 1 17 6
M  V30 17 1 18 4
M  V30 18 1 19 12
M  V30 19 1 19 14
M  V30 20 1 20 12
M  V30 21 1 20 17
M  V30 22 1 21 2
M  V30 23 1 22 3
M  V30 24 1 23 5
M  V30 25 1 24 5
M  V30 26 1 25 6
M  V30 27 1 26 6
M  V30 28 1 27 7
M  V30 29 1 28 8
M  V30 30 1 29 9
M  V30 31 1 30 9
M  V30 32 1 31 10
M  V30 33 1 32 10
M  V30 34 1 33 11
M  V30 35 1 34 12
M  V30 36 1 35 12
M  V30 37 1 36 13
M  V30 38 1 14 37 CFG=3
M  V30 39 1 38 15
M  V30 40 1 39 15
M  V30 41 1 40 16
M  V30 42 1 41 16
M  V30 43 1 42 17
M  V30 44 1 43 18
M  V30 45 1 44 19
M  V30 46 1 45 19
M  V30 47 1 46 20
M  V30 48 1 47 20
M  V30 49 1 48 17
M  V30 END BOND
M  V30 END CTAB
M  END
>  <i_epik_Tot_Q>  (1) 
1

>  <i_epik_Tot_abs_Q>  (1) 
1

>  <i_i_glide_confnum>  (1) 
12

>  <i_i_glide_lignum>  (1) 
65

>  <i_i_glide_posenum>  (1) 
278

>  <i_i_glide_rotatable_bonds>  (1) 
11

>  <i_lp_mmshare_version>  (1) 
72125

>  <i_m_source_file_index>  (1) 
40

>  <i_f3d_flags>  (1) 
0

>  <num_sample>  (1) 
100

>  <b_lp_Chiralities_Consistent>  (1) 
1

>  <r_epik_Charging_Adjusted_Penalty>  (1) 
0.00040157978397640045

>  <r_epik_Ionization_Penalty>  (1) 
0.00040175900368966919

>  <r_epik_Ionization_Penalty_Charging>  (1) 
0.00040157978397640045

>  <r_epik_Ionization_Penalty_Neutral>  (1) 
1.7921971326873193e-07

>  <r_epik_State_Penalty>  (1) 
-0

>  <r_glide_ring_energy>  (1) 
0

>  <r_i_docking_score>  (1) 
-5.5850013311929052

>  <r_i_glide_ecoul>  (1) 
-10.158747061766483

>  <r_i_glide_eff_state_penalty>  (1) 
-0

>  <r_i_glide_einternal>  (1) 
2.7661389214338046

>  <r_i_glide_emodel>  (1) 
-54.545748007865932

>  <r_i_glide_emodel_strain>  (1) 
1.8134350970967716

>  <r_i_glide_energy>  (1) 
-38.424486205267407

>  <r_i_glide_erotb>  (1) 
3.7206293097687571

>  <r_i_glide_esite>  (1) 
-0.10000000000000001

>  <r_i_glide_evdw>  (1) 
-28.265739143500923

>  <r_i_glide_gscore>  (1) 
-5.5850013311929052

>  <r_i_glide_gscore_strain>  (1) 
0

>  <r_i_glide_hbond>  (1) 
-0.51481951109706237

>  <r_i_glide_ligand_efficiency>  (1) 
-0.27925006655964524

>  <r_i_glide_ligand_efficiency_ln>  (1) 
-1.3977416275253458

>  <r_i_glide_ligand_efficiency_sa>  (1) 
-0.75800130010480138

>  <r_i_glide_lipo>  (1) 
-2.9980359322206542

>  <r_i_glide_metal>  (1) 
-0

>  <r_i_glide_rewards>  (1) 
-2.7556761812039259

>  <r_lp_Energy>  (1) 
15.408104999999999

>  <r_lp_tautomer_probability>  (1) 
1

>  <s_epik_cmdline>  (1) 
J2VwaWtfcHl0aG9uJywgJy1waHQnLCAnMS4wJywgJy1waCcsICc3LjQnLCAnLXRuJywgJzgnLCAnLW1hJywgJzUwMCcsICctaW1hZScsICc8aW5maWxlLm1hZT4nLCAnLW9tYWUnLCAnPG91dGZpbGUubWFlPic=

>  <s_epik_input>  (1) 
W0NIMl0xW0NIXT1bQ0hdW0NIXT1bQ0hdW0NIXT1DMVtDSDJdW0NIMl1bQ0gyXVtDSDJdW05IXVtDSDJdW0NIMl1bQ0gyXVtDQEBIXTJbQ0gyXUMyKFtPSF0pW09IXQ==

>  <s_glide_docking_method>  (1) 
confgen

>  <s_i_glide_gridfile>  (1) 
gpcr_drd2_6luq_protein_autoprepared_prepared

>  <s_lp_Force_Field>  (1) 
S-OPLS

>  <s_lp_Variant>  (1) 
DiffSBDD_39-1

>  <s_m_source_file>  (1) 
generated_generic_title2_ligand_DiffSBDD_2026-06-23_prepared.sdf

>  <GenAI_Model>  (1) 
DiffSBDD

>  <Protein>  (1) 
generic_title2

$$$$
DiffSBDD_90
     RDKit          3D

  0  0  0  0  0  0  0  0  0  0999 V3000
M  V30 BEGIN CTAB
M  V30 COUNTS 80 84 0 0 1
M  V30 BEGIN ATOM
M  V30 1 C 8.609204 4.138632 -11.794871 0
M  V30 2 C 8.233856 5.584026 -11.507250 0 CFG=1
M  V30 3 C 10.408607 7.265357 -9.092982 0
M  V30 4 C 11.207758 5.271272 -16.907331 0 CFG=2
M  V30 5 C 10.433541 7.058671 -11.271919 0
M  V30 6 C 10.852862 7.734751 -7.801444 0 CFG=2
M  V30 7 C 8.141171 5.522739 -15.328836 0 CFG=2
M  V30 8 O 8.175421 2.966215 -13.715434 0 CHG=-1
M  V30 9 C 8.830655 4.023397 -13.316514 0 CFG=1
M  V30 10 C 13.501663 5.518913 -17.973751 0
M  V30 11 O 14.723967 2.796301 -16.918406 0
M  V30 12 C 9.330933 6.356903 -10.806320 0
M  V30 13 C 7.771004 7.600601 -13.184005 0 CFG=2
M  V30 14 O 13.865196 1.242714 -18.288757 0 CHG=-1
M  V30 15 O 11.401478 6.164640 -15.985036 0 CHG=-1
M  V30 16 C 8.776667 4.514196 -16.361294 0 CFG=2
M  V30 17 N 10.257985 4.390210 -16.213127 0 CHG=1
M  V30 18 N 8.025183 5.085669 -13.898809 0 CFG=1 CHG=1
M  V30 19 C 11.045618 1.512010 -18.683682 0
M  V30 20 C 8.398051 4.748232 -17.852877 0
M  V30 21 O 7.789111 8.484590 -12.073168 0
M  V30 22 O 7.112581 4.260848 -18.188392 0
M  V30 23 O 5.375605 7.841645 -15.185042 0
M  V30 24 C 6.486343 6.837989 -13.246234 0 CFG=1
M  V30 25 C 13.826525 2.316573 -17.648983 0
M  V30 26 C 6.703736 5.926654 -15.713280 0
M  V30 27 N 11.030816 7.591607 -10.156242 0
M  V30 28 O 11.256432 0.518835 -17.985659 0
M  V30 29 C 12.147180 8.468930 -8.391269 0
M  V30 30 N 9.375418 6.504933 -9.432420 0 CHG=1
M  V30 31 C 12.597609 4.579056 -17.140483 0 CFG=2
M  V30 32 O 11.375497 7.519640 -4.723329 0
M  V30 33 O 11.187086 6.690902 -6.901024 0
M  V30 34 C 10.607527 6.805834 -5.638347 0
M  V30 35 C 10.227637 1.387940 -19.964624 0
M  V30 36 C 12.533341 3.176431 -17.795660 0
M  V30 37 C 5.843523 6.630609 -14.629447 0 CFG=2
M  V30 38 C 11.492108 8.915141 -4.944291 0
M  V30 39 N 11.459992 2.812294 -18.423092 0
M  V30 40 C 12.176701 8.429586 -9.992137 0
M  V30 41 C 7.791562 6.126564 -12.863159 0 CFG=1
M  V30 42 H 9.437940 3.751434 -11.201160 0
M  V30 43 H 7.716072 3.590234 -11.507933 0
M  V30 44 H 7.365492 5.600629 -10.845162 0
M  V30 45 H 10.831276 5.529257 -17.895045 0
M  V30 46 H 10.806573 7.220775 -12.273032 0
M  V30 47 H 10.097447 8.439146 -7.447189 0
M  V30 48 H 8.767130 6.390205 -15.390699 0
M  V30 49 H 9.870355 4.258935 -13.518486 0
M  V30 50 H 14.508702 5.122060 -18.092781 0
M  V30 51 H 13.090880 5.678384 -18.969969 0
M  V30 52 H 13.596736 6.494851 -17.497412 0
M  V30 53 H 8.175388 7.990274 -14.095269 0
M  V30 54 H 8.398707 3.519465 -16.134147 0
M  V30 55 H 10.532015 4.429899 -15.243528 0
M  V30 56 H 9.079259 4.212950 -18.514217 0
M  V30 57 H 8.471703 5.805402 -18.112625 0
M  V30 58 H 7.375197 8.090945 -11.308382 0
M  V30 59 H 7.122270 3.314701 -18.179612 0
M  V30 60 H 6.098856 8.439778 -15.299446 0
M  V30 61 H 5.769655 7.032533 -12.449558 0
M  V30 62 H 6.715760 6.510147 -16.635757 0
M  V30 63 H 6.175313 5.009244 -15.959853 0
M  V30 64 H 12.174604 9.501466 -8.047076 0
M  V30 65 H 13.048462 7.993808 -8.003480 0
M  V30 66 H 13.060596 4.441492 -16.160959 0
M  V30 67 H 9.578563 7.170391 -5.678688 0
M  V30 68 H 10.568334 5.796970 -5.234721 0
M  V30 69 H 9.185496 1.641850 -19.767188 0
M  V30 70 H 10.608335 2.053290 -20.740628 0
M  V30 71 H 10.266653 0.368017 -20.348073 0
M  V30 72 H 4.974910 5.996680 -14.461537 0
M  V30 73 H 11.891659 9.385076 -4.046087 0
M  V30 74 H 12.188335 9.128468 -5.752316 0
M  V30 75 H 10.536047 9.383859 -5.174187 0
M  V30 76 H 13.072160 7.990254 -10.422942 0
M  V30 77 H 11.978811 9.422829 -10.385004 0
M  V30 78 H 8.697993 6.125878 -8.780877 0
M  V30 79 H 10.485375 3.468574 -16.559516 0
M  V30 80 H 7.171851 4.545294 -13.910296 0
M  V30 END ATOM
M  V30 BEGIN BOND
M  V30 1 1 2 1
M  V30 2 1 6 3
M  V30 3 1 9 1
M  V30 4 1 9 8
M  V30 5 1 12 2
M  V30 6 2 12 5
M  V30 7 1 15 4
M  V30 8 1 16 7
M  V30 9 1 17 4
M  V30 10 1 17 16
M  V30 11 1 18 7
M  V30 12 1 18 9
M  V30 13 1 20 16
M  V30 14 1 21 13
M  V30 15 1 22 20
M  V30 16 1 24 13
M  V30 17 2 25 11
M  V30 18 1 25 14
M  V30 19 1 26 7
M  V30 20 1 27 3
M  V30 21 1 27 5
M  V30 22 2 28 19
M  V30 23 1 29 6
M  V30 24 2 30 3
M  V30 25 1 30 12
M  V30 26 1 31 4
M  V30 27 1 31 10
M  V30 28 1 33 6
M  V30 29 1 34 32
M  V30 30 1 34 33
M  V30 31 1 35 19
M  V30 32 1 36 25
M  V30 33 1 36 31
M  V30 34 1 37 23
M  V30 35 1 37 24
M  V30 36 1 37 26
M  V30 37 1 38 32
M  V30 38 1 39 19
M  V30 39 2 39 36
M  V30 40 1 40 27
M  V30 41 1 40 29
M  V30 42 1 41 2 CFG=1
M  V30 43 1 41 13
M  V30 44 1 41 18
M  V30 45 1 41 24
M  V30 46 1 42 1
M  V30 47 1 43 1
M  V30 48 1 2 44 CFG=1
M  V30 49 1 4 45 CFG=3
M  V30 50 1 46 5
M  V30 51 1 6 47 CFG=1
M  V30 52 1 7 48 CFG=1
M  V30 53 1 9 49 CFG=1
M  V30 54 1 50 10
M  V30 55 1 51 10
M  V30 56 1 52 10
M  V30 57 1 13 53 CFG=3
M  V30 58 1 16 54 CFG=1
M  V30 59 1 55 17
M  V30 60 1 56 20
M  V30 61 1 57 20
M  V30 62 1 58 21
M  V30 63 1 59 22
M  V30 64 1 60 23
M  V30 65 1 24 61 CFG=1
M  V30 66 1 62 26
M  V30 67 1 63 26
M  V30 68 1 64 29
M  V30 69 1 65 29
M  V30 70 1 31 66 CFG=1
M  V30 71 1 67 34
M  V30 72 1 68 34
M  V30 73 1 69 35
M  V30 74 1 70 35
M  V30 75 1 71 35
M  V30 76 1 37 72 CFG=1
M  V30 77 1 73 38
M  V30 78 1 74 38
M  V30 79 1 75 38
M  V30 80 1 76 40
M  V30 81 1 77 40
M  V30 82 1 78 30
M  V30 83 1 79 17
M  V30 84 1 18 80 CFG=3
M  V30 END BOND
M  V30 END CTAB
M  END
>  <i_epik_Tot_Q>  (1) 
0

>  <i_epik_Tot_abs_Q>  (1) 
6

>  <i_i_glide_confnum>  (1) 
2876

>  <i_i_glide_lignum>  (1) 
168

>  <i_i_glide_posenum>  (1) 
99

>  <i_i_glide_rotatable_bonds>  (1) 
15

>  <i_lp_mmshare_version>  (1) 
72125

>  <i_m_source_file_index>  (1) 
91

>  <i_f3d_flags>  (1) 
0

>  <num_sample>  (1) 
100

>  <b_lp_Chiralities_Consistent>  (1) 
1

>  <r_epik_Charging_Adjusted_Penalty>  (1) 
0.35079833336250127

>  <r_epik_Ionization_Penalty>  (1) 
1.4702178244609605

>  <r_epik_Ionization_Penalty_Charging>  (1) 
0.099885809697688246

>  <r_epik_Ionization_Penalty_Neutral>  (1) 
1.3703320147632723

>  <r_epik_State_Penalty>  (1) 
0.25091252366481304

>  <r_glide_ring_energy>  (1) 
0

>  <r_i_docking_score>  (1) 
-5.5841774174366448

>  <r_i_glide_ecoul>  (1) 
-8.1896741316373998

>  <r_i_glide_eff_state_penalty>  (1) 
0.25091252366481304

>  <r_i_glide_einternal>  (1) 
10.364143386955597

>  <r_i_glide_emodel>  (1) 
-49.93306847510182

>  <r_i_glide_emodel_strain>  (1) 
0.56779970591153983

>  <r_i_glide_energy>  (1) 
-41.753955828190911

>  <r_i_glide_erotb>  (1) 
0.57888693115673628

>  <r_i_glide_esite>  (1) 
-0.14152295951053803

>  <r_i_glide_evdw>  (1) 
-33.564281696553508

>  <r_i_glide_gscore>  (1) 
-5.8350899411014581

>  <r_i_glide_gscore_strain>  (1) 
0

>  <r_i_glide_hbond>  (1) 
-0.16

>  <r_i_glide_ligand_efficiency>  (1) 
-0.13619944920577182

>  <r_i_glide_ligand_efficiency_ln>  (1) 
-1.1847018223996428

>  <r_i_glide_ligand_efficiency_sa>  (1) 
-0.46964528888197443

>  <r_i_glide_lipo>  (1) 
-1.8028199860889607

>  <r_i_glide_metal>  (1) 
-0

>  <r_i_glide_rewards>  (1) 
-1.4029687220854106

>  <r_lp_Energy>  (1) 
72.675405999999995

>  <r_lp_tautomer_probability>  (1) 
1

>  <s_epik_Chemistry_Notes>  (1) 
This compound has an imine and may undergo hydrolysis. This compound contains an acetal/aminal-like group ( X-CH(R)-Y where X, Y are N, S, or O) that may be acid/base labile, releasing an aldehyde.

>  <s_epik_cmdline>  (1) 
J2VwaWtfcHl0aG9uJywgJy1waHQnLCAnMS4wJywgJy1waCcsICc3LjQnLCAnLXRuJywgJzgnLCAnLW1hJywgJzUwMCcsICctaW1hZScsICc8aW5maWxlLm1hZT4nLCAnLW9tYWUnLCAnPG91dGZpbGUubWFlPic=

>  <s_epik_input>  (1) 
W0NIM11PW0NIMl1PW0NASF0xW0NIMl1bQ0gyXW4oYzEyKVtjSF1jKG4yKVtDQEBIXTNbQ0gyXVtDQEBIXShbT0hdKU4oW0NAQF0zNDUpW0NASF0oW0NIMl1bQ0BIXShbT0hdKVtDQEBIXTVbQ0BIXTRbT0hdKVtDQEBIXShbQ0gyXVtPSF0pW05IXVtDQEBIXShbT0hdKVtDQEhdKFtDSDNdKUMoXEMoPU8pW09IXSk9TlxDKD1PKVtDSDNd

>  <s_glide_docking_method>  (1) 
confgen

>  <s_i_glide_gridfile>  (1) 
gpcr_drd2_6luq_protein_autoprepared_prepared

>  <s_lp_Force_Field>  (1) 
S-OPLS

>  <s_lp_Variant>  (1) 
DiffSBDD_90-3

>  <s_m_source_file>  (1) 
generated_generic_title2_ligand_DiffSBDD_2026-06-23_prepared.sdf

>  <GenAI_Model>  (1) 
DiffSBDD

>  <Protein>  (1) 
generic_title2

$$$$
DiffSBDD_78
     RDKit          3D

  0  0  0  0  0  0  0  0  0  0999 V3000
M  V30 BEGIN CTAB
M  V30 COUNTS 80 84 0 0 1
M  V30 BEGIN ATOM
M  V30 1 C 5.918938 -0.082258 -17.036905 0 CFG=2
M  V30 2 C 4.686106 -0.801599 -16.467882 0
M  V30 3 C 5.799621 5.864866 -13.405258 0 CFG=1
M  V30 4 C 8.003492 6.669555 -11.935062 0 CFG=2
M  V30 5 C 6.098292 -0.284965 -18.554514 0
M  V30 6 N 9.176022 6.478792 -9.796972 0
M  V30 7 C 8.054520 6.807870 -13.454443 0 CFG=1
M  V30 8 C 7.751424 4.284924 -13.657205 0 CFG=1
M  V30 9 N 7.178608 -0.568787 -16.426697 0 CFG=1 CHG=1
M  V30 10 C 8.243959 -0.434674 -17.436200 0
M  V30 11 N 8.575497 3.135892 -13.185065 0 CFG=1 CHG=1
M  V30 12 C 5.731372 3.736647 -12.055004 0
M  V30 13 C 9.362965 6.763707 -11.213535 0
M  V30 14 C 9.857963 6.642894 -7.450751 0
M  V30 15 O 7.346628 5.445347 -11.625493 0
M  V30 16 C 9.277187 3.317309 -11.899782 0
M  V30 17 C 11.024968 7.037012 -6.530271 0 CFG=1
M  V30 18 C 5.832770 6.153449 -14.899397 0
M  V30 19 C 6.638822 4.795535 -12.687806 0 CFG=2
M  V30 20 F 12.030298 6.214512 -6.785069 0
M  V30 21 C 7.547104 -0.748621 -18.756171 0
M  V30 22 C 5.375601 4.084992 -10.606854 0
M  V30 23 O 10.475346 8.288003 -9.038509 0
M  V30 24 C 8.651855 5.507123 -14.059902 0
M  V30 25 C 11.462641 8.490195 -6.821339 0 CFG=1
M  V30 26 C 7.715302 1.408049 -14.880813 0
M  V30 27 C 10.251747 6.916681 -8.917713 0 CFG=2
M  V30 28 C 7.514187 -0.111495 -15.054265 0
M  V30 29 C 8.140195 1.724551 -13.435140 0
M  V30 30 C 10.706876 6.802485 -5.052140 0
M  V30 31 C 11.627333 8.733736 -8.331569 0
M  V30 32 C 6.632450 6.996342 -13.932206 0 CFG=1
M  V30 33 F 10.575302 9.343581 -6.321517 0
M  V30 34 H 5.818402 0.988778 -16.863441 0
M  V30 35 H 3.775585 -0.469191 -16.967138 0
M  V30 36 H 4.755329 -1.882389 -16.596527 0
M  V30 37 H 4.563200 -0.600493 -15.403639 0
M  V30 38 H 4.975348 6.230804 -12.810839 0
M  V30 39 H 7.370198 7.483021 -11.585044 0
M  V30 40 H 5.916977 0.651963 -19.082902 0
M  V30 41 H 5.402542 -1.020468 -18.961601 0
M  V30 42 H 8.302661 6.950537 -9.515532 0
M  V30 43 H 8.575355 7.739521 -13.585084 0
M  V30 44 H 7.267607 3.935444 -14.561447 0
M  V30 45 H 8.627248 0.585347 -17.460134 0
M  V30 46 H 9.079830 -1.106855 -17.233943 0
M  V30 47 H 4.850485 3.598732 -12.681871 0
M  V30 48 H 6.194314 2.769492 -11.991762 0
M  V30 49 H 9.743625 7.777107 -11.345632 0
M  V30 50 H 10.114605 6.105444 -11.638256 0
M  V30 51 H 8.957965 7.214209 -7.212558 0
M  V30 52 H 9.616793 5.585887 -7.333886 0
M  V30 53 H 8.635399 3.590178 -11.065848 0
M  V30 54 H 9.775422 2.393818 -11.660008 0
M  V30 55 H 10.067120 4.056604 -11.985197 0
M  V30 56 H 6.375200 5.526384 -15.599113 0
M  V30 57 H 4.975445 6.644018 -15.345816 0
M  V30 58 H 8.030305 -0.269302 -19.608458 0
M  V30 59 H 7.565063 -1.825557 -18.931034 0
M  V30 60 H 4.695282 3.368110 -10.166902 0
M  V30 61 H 6.269003 4.052654 -9.984463 0
M  V30 62 H 4.958005 5.087988 -10.515240 0
M  V30 63 H 8.712666 5.589919 -15.145806 0
M  V30 64 H 9.683339 5.389155 -13.732502 0
M  V30 65 H 12.388329 8.758102 -6.314689 0
M  V30 66 H 6.783884 1.920702 -15.111821 0
M  V30 67 H 8.473104 1.781339 -15.569422 0
M  V30 68 H 11.165826 6.390334 -9.184962 0
M  V30 69 H 8.420704 -0.638371 -14.751291 0
M  V30 70 H 6.731972 -0.453504 -14.375415 0
M  V30 71 H 9.003526 1.092258 -13.223456 0
M  V30 72 H 7.393031 1.360097 -12.738433 0
M  V30 73 H 9.775496 7.289154 -4.801054 0
M  V30 74 H 10.585081 5.745454 -4.822428 0
M  V30 75 H 11.483672 7.199489 -4.399277 0
M  V30 76 H 12.512930 8.218996 -8.706419 0
M  V30 77 H 11.775343 9.792850 -8.535110 0
M  V30 78 H 6.248371 7.989124 -13.785957 0
M  V30 79 H 7.057395 -1.569774 -16.331098 0
M  V30 80 H 9.352995 3.201677 -13.823504 0
M  V30 END ATOM
M  V30 BEGIN BOND
M  V30 1 1 2 1
M  V30 2 1 5 1
M  V30 3 1 7 4
M  V30 4 1 9 1
M  V30 5 1 10 9
M  V30 6 1 11 8
M  V30 7 1 13 4
M  V30 8 1 13 6
M  V30 9 1 15 4
M  V30 10 1 16 11
M  V30 11 1 17 14
M  V30 12 1 18 3
M  V30 13 1 19 3
M  V30 14 1 19 8
M  V30 15 1 19 12 CFG=1
M  V30 16 1 19 15
M  V30 17 1 17 20 CFG=3
M  V30 18 1 21 5
M  V30 19 1 21 10
M  V30 20 1 22 12
M  V30 21 1 24 7
M  V30 22 1 24 8
M  V30 23 1 25 17
M  V30 24 1 27 6
M  V30 25 1 27 14
M  V30 26 1 27 23
M  V30 27 1 28 9
M  V30 28 1 28 26
M  V30 29 1 29 11
M  V30 30 1 29 26
M  V30 31 1 30 17
M  V30 32 1 31 23
M  V30 33 1 31 25
M  V30 34 1 32 3
M  V30 35 1 32 7
M  V30 36 1 32 18
M  V30 37 1 33 25
M  V30 38 1 1 34 CFG=3
M  V30 39 1 35 2
M  V30 40 1 36 2
M  V30 41 1 37 2
M  V30 42 1 3 38 CFG=1
M  V30 43 1 4 39 CFG=1
M  V30 44 1 40 5
M  V30 45 1 41 5
M  V30 46 1 42 6
M  V30 47 1 7 43 CFG=1
M  V30 48 1 8 44 CFG=3
M  V30 49 1 45 10
M  V30 50 1 46 10
M  V30 51 1 47 12
M  V30 52 1 48 12
M  V30 53 1 49 13
M  V30 54 1 50 13
M  V30 55 1 51 14
M  V30 56 1 52 14
M  V30 57 1 53 16
M  V30 58 1 54 16
M  V30 59 1 55 16
M  V30 60 1 56 18
M  V30 61 1 57 18
M  V30 62 1 58 21
M  V30 63 1 59 21
M  V30 64 1 60 22
M  V30 65 1 61 22
M  V30 66 1 62 22
M  V30 67 1 63 24
M  V30 68 1 64 24
M  V30 69 1 25 65 CFG=1
M  V30 70 1 66 26
M  V30 71 1 67 26
M  V30 72 1 27 68 CFG=3
M  V30 73 1 69 28
M  V30 74 1 70 28
M  V30 75 1 71 29
M  V30 76 1 72 29
M  V30 77 1 73 30
M  V30 78 1 74 30
M  V30 79 1 75 30
M  V30 80 1 76 31
M  V30 81 1 77 31
M  V30 82 1 32 78 CFG=1
M  V30 83 1 9 79 CFG=1
M  V30 84 1 11 80 CFG=3
M  V30 END BOND
M  V30 END CTAB
M  END
>  <i_epik_Tot_Q>  (1) 
2

>  <i_epik_Tot_abs_Q>  (1) 
2

>  <i_i_glide_confnum>  (1) 
292

>  <i_i_glide_lignum>  (1) 
132

>  <i_i_glide_posenum>  (1) 
213

>  <i_i_glide_rotatable_bonds>  (1) 
9

>  <i_lp_mmshare_version>  (1) 
72125

>  <i_m_source_file_index>  (1) 
79

>  <i_f3d_flags>  (1) 
0

>  <num_sample>  (1) 
100

>  <b_lp_Chiralities_Consistent>  (1) 
1

>  <r_epik_Charging_Adjusted_Penalty>  (1) 
0.22182564166484353

>  <r_epik_Ionization_Penalty>  (1) 
0.22182564166592098

>  <r_epik_Ionization_Penalty_Charging>  (1) 
0.060182310347739972

>  <r_epik_Ionization_Penalty_Neutral>  (1) 
0.16164333131818101

>  <r_epik_State_Penalty>  (1) 
0.16164333131710357

>  <r_glide_ring_energy>  (1) 
0

>  <r_i_docking_score>  (1) 
-5.5814554833069163

>  <r_i_glide_ecoul>  (1) 
-8.840133014212153

>  <r_i_glide_eff_state_penalty>  (1) 
0.16164333131710357

>  <r_i_glide_einternal>  (1) 
5.3450875932464381

>  <r_i_glide_emodel>  (1) 
-36.808405329001097

>  <r_i_glide_emodel_strain>  (1) 
3.1932977404318308

>  <r_i_glide_energy>  (1) 
-28.53472613970667

>  <r_i_glide_erotb>  (1) 
0.726867567680611

>  <r_i_glide_esite>  (1) 
-0.078349161764274089

>  <r_i_glide_evdw>  (1) 
-19.694593125494517

>  <r_i_glide_gscore>  (1) 
-5.7430988146240196

>  <r_i_glide_gscore_strain>  (1) 
0

>  <r_i_glide_hbond>  (1) 
-0.16

>  <r_i_glide_ligand_efficiency>  (1) 
-0.16913501464566413

>  <r_i_glide_ligand_efficiency_ln>  (1) 
-1.2412868002576192

>  <r_i_glide_ligand_efficiency_sa>  (1) 
-0.54250636588031464

>  <r_i_glide_lipo>  (1) 
-2.5445581847954433

>  <r_i_glide_metal>  (1) 
-0

>  <r_i_glide_rewards>  (1) 
-1.3763094273383634

>  <r_lp_Energy>  (1) 
69.690649999999991

>  <s_epik_Chemistry_Notes>  (1) 
This compound contains an acetal/aminal-like group ( X-CH(R)-Y where X, Y are N, S, or O) that may be acid/base labile, releasing an aldehyde.

>  <s_epik_cmdline>  (1) 
J2VwaWtfcHl0aG9uJywgJy1waHQnLCAnMS4wJywgJy1waCcsICc3LjQnLCAnLXRuJywgJzgnLCAnLW1hJywgJzUwMCcsICctaW1hZScsICc8aW5maWxlLm1hZT4nLCAnLW9tYWUnLCAnPG91dGZpbGUubWFlPic=

>  <s_epik_input>  (1) 
W0NIM11bQ0BASF0xW0NIMl1bQ0gyXVtDSDJdTjFbQ0gyXVtDSDJdW0NIMl1OKFtDSDNdKVtDQEBIXTJbQ0gyXVtDQEBIXShbQ0BASF0oW0NIMl0zKVtDQEBIXTNbQ0BAXTI0W0NIMl1bQ0gzXSlbQ0BASF0oTzQpW0NIMl1bTkhdW0NASF0oW0NIMl1bQ0BdNShGKVtDSDNdKU9bQ0gyXVtDQEhdNUY=

>  <s_glide_docking_method>  (1) 
confgen

>  <s_i_glide_gridfile>  (1) 
gpcr_drd2_6luq_protein_autoprepared_prepared

>  <s_lp_Force_Field>  (1) 
S-OPLS

>  <s_lp_Variant>  (1) 
DiffSBDD_78-4

>  <s_m_source_file>  (1) 
generated_generic_title2_ligand_DiffSBDD_2026-06-23_prepared.sdf

>  <GenAI_Model>  (1) 
DiffSBDD

>  <Protein>  (1) 
generic_title2

$$$$
DiffSBDD_35
     RDKit          3D

  0  0  0  0  0  0  0  0  0  0999 V3000
M  V30 BEGIN CTAB
M  V30 COUNTS 58 60 0 0 1
M  V30 BEGIN ATOM
M  V30 1 O 5.774642 0.510933 -16.453620 0
M  V30 2 N 11.866815 8.883422 -4.389077 0 CHG=1
M  V30 3 C 11.780623 6.512884 -2.968233 0
M  V30 4 C 10.746490 6.686681 -7.102876 0
M  V30 5 C 7.397195 2.945841 -15.597900 0
M  V30 6 C 6.650816 0.223267 -15.414213 0
M  V30 7 C 11.477760 9.028202 -7.077603 0
M  V30 8 C 7.362331 5.496262 -15.220808 0
M  V30 9 C 12.314947 8.875329 -3.118473 0
M  V30 10 Cl 6.359479 7.187642 -13.473436 0
M  V30 11 O 6.546221 1.137320 -14.363385 0
M  V30 12 C 9.254002 5.280262 -9.484896 0
M  V30 13 C 6.952210 4.551335 -12.946900 0
M  V30 14 C 11.322287 6.556638 -4.304194 0
M  V30 15 S 6.878040 5.086566 -11.189680 0
M  V30 16 C 7.981196 4.289551 -15.818276 0
M  V30 17 C 10.796648 7.178474 -8.575779 0 CFG=2
M  V30 18 C 10.964668 8.718003 -8.474011 0 CFG=2
M  V30 19 C 6.975385 2.451149 -14.418217 0
M  V30 20 C 9.543351 7.520608 -10.793293 0
M  V30 21 C 9.546287 6.803119 -9.411363 0 CFG=1
M  V30 22 N 10.933642 7.912112 -6.349529 0
M  V30 23 C 6.943111 5.631857 -13.955916 0
M  V30 24 O 6.158569 3.990255 -10.403270 0
M  V30 25 C 11.375444 7.782383 -5.011640 0
M  V30 26 O 9.376316 4.200438 -11.617686 0
M  V30 27 C 8.658803 4.789335 -10.812800 0
M  V30 28 C 5.737548 -0.500778 -17.445878 0
M  V30 29 F 11.778914 9.194255 -9.413026 0
M  V30 30 C 6.956910 3.194884 -13.153984 0
M  V30 31 C 12.284762 7.686268 -2.371669 0
M  V30 32 H 11.746387 5.590331 -2.409207 0
M  V30 33 H 9.787898 6.231496 -6.849297 0
M  V30 34 H 11.544283 5.966041 -6.918822 0
M  V30 35 H 7.377096 2.313343 -16.469631 0
M  V30 36 H 7.681632 0.161071 -15.768350 0
M  V30 37 H 6.383559 -0.747643 -14.991714 0
M  V30 38 H 11.124317 9.990383 -6.707811 0
M  V30 39 H 12.568484 9.003670 -7.047347 0
M  V30 40 H 7.310947 6.357267 -15.871282 0
M  V30 41 H 12.681614 9.818023 -2.738949 0
M  V30 42 H 8.573003 4.993432 -8.683167 0
M  V30 43 H 10.169167 4.718247 -9.299169 0
M  V30 44 H 10.932256 5.664832 -4.770672 0
M  V30 45 H 7.969554 4.449954 -16.896722 0
M  V30 46 H 9.034512 4.265836 -15.537987 0
M  V30 47 H 11.693663 6.790148 -9.053975 0
M  V30 48 H 9.991683 9.190224 -8.601436 0
M  V30 49 H 10.314389 7.123748 -11.454550 0
M  V30 50 H 8.582258 7.430690 -11.297651 0
M  V30 51 H 9.698151 8.592666 -10.721470 0
M  V30 52 H 8.736035 7.190615 -8.806673 0
M  V30 53 H 5.041249 -0.212956 -18.233951 0
M  V30 54 H 6.718819 -0.644850 -17.899918 0
M  V30 55 H 5.399744 -1.451470 -17.030635 0
M  V30 56 H 6.903961 2.588665 -12.269142 0
M  V30 57 H 12.642357 7.673033 -1.352851 0
M  V30 58 H 11.898947 9.760577 -4.907979 0
M  V30 END ATOM
M  V30 BEGIN BOND
M  V30 1 1 6 1
M  V30 2 2 9 2
M  V30 3 1 11 6
M  V30 4 1 14 3
M  V30 5 1 15 13
M  V30 6 1 16 5
M  V30 7 1 16 8
M  V30 8 1 17 4
M  V30 9 1 18 7
M  V30 10 1 18 17
M  V30 11 2 19 5
M  V30 12 1 19 11
M  V30 13 1 21 12
M  V30 14 1 21 17
M  V30 15 1 21 20
M  V30 16 1 22 4
M  V30 17 1 22 7
M  V30 18 2 23 8
M  V30 19 1 23 10
M  V30 20 1 23 13
M  V30 21 2 24 15
M  V30 22 1 25 2
M  V30 23 2 25 14
M  V30 24 1 25 22
M  V30 25 1 27 12
M  V30 26 1 15 27 CFG=1
M  V30 27 2 27 26
M  V30 28 1 28 1
M  V30 29 1 29 18
M  V30 30 2 30 13
M  V30 31 1 30 19
M  V30 32 2 31 3
M  V30 33 1 31 9
M  V30 34 1 32 3
M  V30 35 1 33 4
M  V30 36 1 34 4
M  V30 37 1 35 5
M  V30 38 1 36 6
M  V30 39 1 37 6
M  V30 40 1 38 7
M  V30 41 1 39 7
M  V30 42 1 40 8
M  V30 43 1 41 9
M  V30 44 1 42 12
M  V30 45 1 43 12
M  V30 46 1 44 14
M  V30 47 1 45 16
M  V30 48 1 46 16
M  V30 49 1 17 47 CFG=3
M  V30 50 1 18 48 CFG=3
M  V30 51 1 49 20
M  V30 52 1 50 20
M  V30 53 1 51 20
M  V30 54 1 21 52 CFG=1
M  V30 55 1 53 28
M  V30 56 1 54 28
M  V30 57 1 55 28
M  V30 58 1 56 30
M  V30 59 1 57 31
M  V30 60 1 58 2
M  V30 END BOND
M  V30 END CTAB
M  END
>  <i_epik_Tot_Q>  (1) 
1

>  <i_epik_Tot_abs_Q>  (1) 
1

>  <i_i_glide_confnum>  (1) 
477

>  <i_i_glide_lignum>  (1) 
60

>  <i_i_glide_posenum>  (1) 
360

>  <i_i_glide_rotatable_bonds>  (1) 
9

>  <i_lp_mmshare_version>  (1) 
72125

>  <i_m_source_file_index>  (1) 
36

>  <i_f3d_flags>  (1) 
0

>  <num_sample>  (1) 
100

>  <b_lp_Chiralities_Consistent>  (1) 
1

>  <r_epik_Charging_Adjusted_Penalty>  (1) 
2.209854292761551

>  <r_epik_Ionization_Penalty>  (1) 
1.1049271463807997

>  <r_epik_Ionization_Penalty_Charging>  (1) 
1.1049271463807746

>  <r_epik_Ionization_Penalty_Neutral>  (1) 
2.4996070932980704e-14

>  <r_epik_State_Penalty>  (1) 
1.1049271463807766

>  <r_glide_ring_energy>  (1) 
0

>  <r_i_docking_score>  (1) 
-5.5727598624782955

>  <r_i_glide_ecoul>  (1) 
-3.1138727444979488

>  <r_i_glide_eff_state_penalty>  (1) 
1.1049271463807766

>  <r_i_glide_einternal>  (1) 
8.9463877383886601

>  <r_i_glide_emodel>  (1) 
-57.04883932785205

>  <r_i_glide_emodel_strain>  (1) 
2.5013258372412821

>  <r_i_glide_energy>  (1) 
-45.276194734002445

>  <r_i_glide_erotb>  (1) 
0.7316535107535509

>  <r_i_glide_esite>  (1) 
-0.050994080946506481

>  <r_i_glide_evdw>  (1) 
-42.162321989504498

>  <r_i_glide_gscore>  (1) 
-6.6776870088590723

>  <r_i_glide_gscore_strain>  (1) 
0

>  <r_i_glide_hbond>  (1) 
0

>  <r_i_glide_ligand_efficiency>  (1) 
-0.17976644717671922

>  <r_i_glide_ligand_efficiency_ln>  (1) 
-1.2568281335681883

>  <r_i_glide_ligand_efficiency_sa>  (1) 
-0.56471483911008513

>  <r_i_glide_lipo>  (1) 
-3.0279093240314618

>  <r_i_glide_metal>  (1) 
-0

>  <r_i_glide_rewards>  (1) 
-1.7552401034847378

>  <r_lp_Energy>  (1) 
47.315815999999998

>  <r_lp_tautomer_probability>  (1) 
0.99999385203779767

>  <s_epik_Chemistry_Notes>  (1) 
This compound contains an acetal/aminal-like group ( X-CH(R)-Y where X, Y are N, S, or O) that may be acid/base labile, releasing an aldehyde.

>  <s_epik_cmdline>  (1) 
J2VwaWtfcHl0aG9uJywgJy1waHQnLCAnMS4wJywgJy1waCcsICc3LjQnLCAnLXRuJywgJzgnLCAnLW1hJywgJzUwMCcsICctaW1hZScsICc8aW5maWxlLm1hZT4nLCAnLW9tYWUnLCAnPG91dGZpbGUubWFlPic=

>  <s_epik_input>  (1) 
Q2xDMT1bQ0hdW0NIMl1bQ0hdPUMoT1tDSDJdT1tDSDNdKVtDSF09QzFbU0BAXSg9TylDKD1PKVtDSDJdW0NASF0oW0NIM10pW0NAQEhdMltDSDJdTihbQ0gyXVtDQEhdMkYpYzNuW2NIXVtjSF1bY0hdW2NIXTM=

>  <s_glide_docking_method>  (1) 
confgen

>  <s_i_glide_gridfile>  (1) 
gpcr_drd2_6luq_protein_autoprepared_prepared

>  <s_lp_Force_Field>  (1) 
S-OPLS

>  <s_lp_Variant>  (1) 
DiffSBDD_35-2

>  <s_m_source_file>  (1) 
generated_generic_title2_ligand_DiffSBDD_2026-06-23_prepared.sdf

>  <GenAI_Model>  (1) 
DiffSBDD

>  <Protein>  (1) 
generic_title2

$$$$
DiffSBDD_79
     RDKit          3D

  0  0  0  0  0  0  0  0  0  0999 V3000
M  V30 BEGIN CTAB
M  V30 COUNTS 53 56 0 0 1
M  V30 BEGIN ATOM
M  V30 1 C 6.755127 6.193464 -15.658151 0
M  V30 2 C 11.047822 8.300447 -8.052460 0 CFG=2
M  V30 3 C 4.942294 7.171519 -17.008117 0
M  V30 4 C 8.331377 5.348436 -10.815502 0
M  V30 5 C 10.113221 7.088343 -8.143982 0
M  V30 6 C 6.114668 7.388423 -14.920087 0
M  V30 7 C 5.387658 8.208737 -15.984163 0
M  V30 8 N 9.820511 6.544153 -9.270989 0
M  V30 9 C 8.418810 5.863536 -13.194211 0
M  V30 10 C 8.871117 5.521938 -9.418170 0
M  V30 11 C 11.775495 10.158610 -6.325428 0
M  V30 12 C 12.539797 8.180733 -7.893469 0
M  V30 13 C 6.702358 4.353847 -12.349276 0
M  V30 14 C 9.968645 7.411124 -5.585045 0
M  V30 15 C 7.302505 5.034126 -13.426711 0
M  V30 16 C 7.216247 4.507942 -11.046150 0
M  V30 17 C 11.437154 7.762008 -5.556032 0 CFG=1
M  V30 18 C 6.743774 4.878772 -14.841116 0
M  V30 19 C 9.567988 6.592458 -6.799683 0
M  V30 20 C 11.715318 8.691833 -6.733189 0 CFG=2
M  V30 21 C 6.095644 6.169557 -17.051255 0
M  V30 22 C 8.927686 6.025967 -11.898562 0
M  V30 23 O 8.448182 4.790396 -8.518426 0
M  V30 24 C 11.916508 8.255209 -4.171682 0
M  V30 25 H 7.804771 6.390226 -15.846833 0
M  V30 26 H 10.680238 9.101894 -8.690478 0
M  V30 27 H 4.727956 7.609373 -17.984360 0
M  V30 28 H 4.036810 6.671877 -16.661074 0
M  V30 29 H 5.387510 7.033428 -14.188572 0
M  V30 30 H 6.854612 7.984119 -14.384585 0
M  V30 31 H 6.084783 8.914799 -16.433319 0
M  V30 32 H 4.552954 8.784410 -15.584170 0
M  V30 33 H 8.879970 6.379671 -14.007674 0
M  V30 34 H 10.912922 10.424486 -5.715281 0
M  V30 35 H 12.683363 10.358039 -5.758999 0
M  V30 36 H 11.775392 10.818142 -7.185032 0
M  V30 37 H 13.161576 8.887086 -8.438382 0
M  V30 38 H 12.971642 7.196771 -7.753883 0
M  V30 39 H 5.847211 3.716391 -12.519212 0
M  V30 40 H 9.366842 8.318568 -5.585029 0
M  V30 41 H 9.775427 6.800039 -4.706446 0
M  V30 42 H 6.749624 3.990315 -10.221127 0
M  V30 43 H 11.940371 6.810718 -5.736396 0
M  V30 44 H 7.322227 4.112264 -15.358516 0
M  V30 45 H 5.726693 4.502076 -14.772201 0
M  V30 46 H 8.478894 6.547305 -6.818287 0
M  V30 47 H 9.948530 5.590155 -6.646629 0
M  V30 48 H 6.822306 6.506271 -17.791886 0
M  V30 49 H 5.768251 5.190150 -17.372938 0
M  V30 50 H 9.779126 6.669726 -11.737933 0
M  V30 51 H 11.375506 9.136819 -3.830308 0
M  V30 52 H 11.777402 7.480426 -3.416354 0
M  V30 53 H 12.975790 8.507314 -4.176513 0
M  V30 END ATOM
M  V30 BEGIN BOND
M  V30 1 1 5 2
M  V30 2 1 6 1
M  V30 3 1 7 3
M  V30 4 1 7 6
M  V30 5 2 8 5
M  V30 6 1 10 4
M  V30 7 1 10 8
M  V30 8 1 12 2
M  V30 9 1 15 9
M  V30 10 2 15 13
M  V30 11 2 16 4
M  V30 12 1 16 13
M  V30 13 1 17 14
M  V30 14 1 18 1
M  V30 15 1 18 15
M  V30 16 1 19 5
M  V30 17 1 19 14
M  V30 18 1 20 2
M  V30 19 1 20 11 CFG=1
M  V30 20 1 20 12
M  V30 21 1 20 17
M  V30 22 1 21 1
M  V30 23 1 21 3
M  V30 24 1 22 4
M  V30 25 2 22 9
M  V30 26 2 23 10
M  V30 27 1 24 17
M  V30 28 1 25 1
M  V30 29 1 2 26 CFG=3
M  V30 30 1 27 3
M  V30 31 1 28 3
M  V30 32 1 29 6
M  V30 33 1 30 6
M  V30 34 1 31 7
M  V30 35 1 32 7
M  V30 36 1 33 9
M  V30 37 1 34 11
M  V30 38 1 35 11
M  V30 39 1 36 11
M  V30 40 1 37 12
M  V30 41 1 38 12
M  V30 42 1 39 13
M  V30 43 1 40 14
M  V30 44 1 41 14
M  V30 45 1 42 16
M  V30 46 1 17 43 CFG=3
M  V30 47 1 44 18
M  V30 48 1 45 18
M  V30 49 1 46 19
M  V30 50 1 47 19
M  V30 51 1 48 21
M  V30 52 1 49 21
M  V30 53 1 50 22
M  V30 54 1 51 24
M  V30 55 1 52 24
M  V30 56 1 53 24
M  V30 END BOND
M  V30 END CTAB
M  END
>  <i_epik_Tot_Q>  (1) 
0

>  <i_epik_Tot_abs_Q>  (1) 
0

>  <i_i_glide_confnum>  (1) 
20

>  <i_i_glide_lignum>  (1) 
137

>  <i_i_glide_posenum>  (1) 
165

>  <i_i_glide_rotatable_bonds>  (1) 
4

>  <i_lp_mmshare_version>  (1) 
72125

>  <i_m_source_file_index>  (1) 
80

>  <i_f3d_flags>  (1) 
0

>  <num_sample>  (1) 
100

>  <b_lp_Chiralities_Consistent>  (1) 
1

>  <r_epik_Charging_Adjusted_Penalty>  (1) 
0

>  <r_epik_Ionization_Penalty>  (1) 
0

>  <r_epik_Ionization_Penalty_Charging>  (1) 
0

>  <r_epik_Ionization_Penalty_Neutral>  (1) 
0

>  <r_epik_State_Penalty>  (1) 
-0

>  <r_glide_ring_energy>  (1) 
0.22242768926462378

>  <r_i_docking_score>  (1) 
-5.5719353718884905

>  <r_i_glide_ecoul>  (1) 
0.62699833894222012

>  <r_i_glide_eff_state_penalty>  (1) 
-0

>  <r_i_glide_einternal>  (1) 
3.3021951481379155

>  <r_i_glide_emodel>  (1) 
-36.469199040639474

>  <r_i_glide_emodel_strain>  (1) 
0.7277570882315274

>  <r_i_glide_energy>  (1) 
-30.082211398805018

>  <r_i_glide_erotb>  (1) 
0.71538486133248902

>  <r_i_glide_esite>  (1) 
-0.12645933708737617

>  <r_i_glide_evdw>  (1) 
-30.709209737747237

>  <r_i_glide_gscore>  (1) 
-5.5719353718884905

>  <r_i_glide_gscore_strain>  (1) 
0

>  <r_i_glide_hbond>  (1) 
0

>  <r_i_glide_ligand_efficiency>  (1) 
-0.23216397382868711

>  <r_i_glide_ligand_efficiency_ln>  (1) 
-1.3336198139468356

>  <r_i_glide_ligand_efficiency_sa>  (1) 
-0.66967678299056876

>  <r_i_glide_lipo>  (1) 
-2.6159219555421185

>  <r_i_glide_metal>  (1) 
-0

>  <r_i_glide_rewards>  (1) 
-2.103528204545456

>  <r_lp_Energy>  (1) 
53.127567999999997

>  <r_lp_tautomer_probability>  (1) 
1

>  <s_epik_Chemistry_Notes>  (1) 
This compound has an imine and may undergo hydrolysis.

>  <s_epik_cmdline>  (1) 
J2VwaWtfcHl0aG9uJywgJy1waHQnLCAnMS4wJywgJy1waCcsICc3LjQnLCAnLXRuJywgJzgnLCAnLW1hJywgJzUwMCcsICctaW1hZScsICc8aW5maWxlLm1hZT4nLCAnLW9tYWUnLCAnPG91dGZpbGUubWFlPic=

>  <s_epik_input>  (1) 
W0NIMl0xW0NIMl1bQ0gyXVtDSDJdW0NIXTFbQ0gyXWMoW2NIXVtjSF0yKVtjSF1bY0hdYzJDKD1PKVxOPUMoXFtDQEhdKFtDSDJdMylDMzRbQ0gzXSlbQ0gyXVtDSDJdW0NAQEhdNFtDSDNd

>  <s_glide_docking_method>  (1) 
confgen

>  <s_i_glide_gridfile>  (1) 
gpcr_drd2_6luq_protein_autoprepared_prepared

>  <s_lp_Force_Field>  (1) 
S-OPLS

>  <s_lp_Variant>  (1) 
DiffSBDD_79-1

>  <s_m_source_file>  (1) 
generated_generic_title2_ligand_DiffSBDD_2026-06-23_prepared.sdf

>  <GenAI_Model>  (1) 
DiffSBDD

>  <Protein>  (1) 
generic_title2

$$$$
DiffSBDD_40
     RDKit          3D

  0  0  0  0  0  0  0  0  0  0999 V3000
M  V30 BEGIN CTAB
M  V30 COUNTS 89 95 0 0 1
M  V30 BEGIN ATOM
M  V30 1 N 9.355587 6.541939 -10.369680 0
M  V30 2 C 9.465826 4.742591 -8.624619 0
M  V30 3 C 8.675119 4.017202 -18.766007 0
M  V30 4 C 14.296827 4.954991 -17.165099 0
M  V30 5 C 7.720015 4.434091 -17.784208 0
M  V30 6 C 8.811620 5.204391 -10.008045 0 CFG=2
M  V30 7 C 7.135551 6.351226 -19.188087 0
M  V30 8 C 11.621946 3.972767 -18.025847 0 CFG=1
M  V30 9 O 7.377402 6.185763 -12.492743 0
M  V30 10 C 9.526659 2.753586 -18.574039 0 CFG=1
M  V30 11 C 7.495697 3.640858 -16.486248 0 CFG=1
M  V30 12 N 5.588316 7.401995 -12.102400 0
M  V30 13 C 8.321656 4.378722 -11.192573 0 CFG=1
M  V30 14 C 8.156612 1.188047 -17.034162 0
M  V30 15 N 13.776807 8.826178 -19.244365 0 CHG=1
M  V30 16 C 6.122551 6.401633 -12.874769 0
M  V30 17 O 11.348637 1.531580 -17.585896 0
M  V30 18 C 10.114499 6.045806 -8.299533 0
M  V30 19 C 12.815553 3.145614 -17.985163 0
M  V30 20 C 9.175183 5.005080 -13.541647 0
M  V30 21 C 10.581846 8.235467 -9.133889 0
M  V30 22 C 10.031210 6.961714 -9.271720 0
M  V30 23 N 10.630895 2.891236 -17.618416 0
M  V30 24 C 14.159154 3.805344 -18.180856 0
M  V30 25 O 5.550295 5.782842 -13.771258 0
M  V30 26 C 8.838058 4.781700 -19.945264 0
M  V30 27 N 12.977357 6.830111 -18.244094 0
M  V30 28 C 11.726124 5.128932 -17.022597 0
M  V30 29 C 6.960471 5.603319 -18.009501 0
M  V30 30 C 8.716507 1.435460 -18.441090 0 CFG=1
M  V30 31 C 8.070404 5.941523 -20.152766 0
M  V30 32 C 10.739857 6.333091 -7.074545 0
M  V30 33 C 7.363371 4.794438 -10.097089 0
M  V30 34 C 11.298496 7.613783 -6.881534 0
M  V30 35 C 14.020948 7.838776 -18.186495 0
M  V30 36 C 7.647472 1.282330 -19.535961 0
M  V30 37 C 7.056400 2.169076 -16.625245 0
M  V30 38 C 7.975994 4.897683 -12.591733 0 CFG=2
M  V30 39 C 11.230786 8.570233 -7.924043 0
M  V30 40 O 8.520536 3.770018 -15.514393 0
M  V30 41 C 12.620089 1.900173 -17.761156 0
M  V30 42 C 8.730586 5.086015 -15.009508 0
M  V30 43 C 13.060482 5.900598 -17.122218 0 CFG=1
M  V30 44 H 8.723992 7.197494 -10.812615 0
M  V30 45 H 8.715898 4.456698 -7.888781 0
M  V30 46 H 10.174919 3.935300 -8.789429 0
M  V30 47 H 14.389536 4.501745 -16.177201 0
M  V30 48 H 15.233933 5.488253 -17.317738 0
M  V30 49 H 6.548447 7.241798 -19.352137 0
M  V30 50 H 11.490109 4.331686 -19.048007 0
M  V30 51 H 10.039810 2.630352 -19.528125 0
M  V30 52 H 6.631101 4.107761 -16.011514 0
M  V30 53 H 6.161930 7.799245 -11.361455 0
M  V30 54 H 4.631679 7.675056 -12.267084 0
M  V30 55 H 8.751392 3.387937 -11.207451 0
M  V30 56 H 8.962931 1.205362 -16.298876 0
M  V30 57 H 7.752893 0.174718 -16.991937 0
M  V30 58 H 14.589480 9.416072 -19.347669 0
M  V30 59 H 13.589060 8.354040 -20.117606 0
M  V30 60 H 9.831957 4.149414 -13.409025 0
M  V30 61 H 9.764413 5.884907 -13.281121 0
M  V30 62 H 10.509619 8.939253 -9.936127 0
M  V30 63 H 14.967390 3.079914 -18.074179 0
M  V30 64 H 14.212378 4.193608 -19.196769 0
M  V30 65 H 9.555548 4.473782 -20.694032 0
M  V30 66 H 12.073264 7.280203 -18.179185 0
M  V30 67 H 11.643038 4.725014 -16.012495 0
M  V30 68 H 10.886693 5.807429 -17.173879 0
M  V30 69 H 6.238731 5.926188 -17.272522 0
M  V30 70 H 9.403080 0.611141 -18.624982 0
M  V30 71 H 8.198856 6.519289 -21.056722 0
M  V30 72 H 10.782956 5.595039 -6.291546 0
M  V30 73 H 6.656347 5.606403 -10.220478 0
M  V30 74 H 6.992554 3.990744 -9.463454 0
M  V30 75 H 11.769836 7.861557 -5.945665 0
M  V30 76 H 14.024500 8.346833 -17.219585 0
M  V30 77 H 14.998092 7.383918 -18.351820 0
M  V30 78 H 6.903483 2.077267 -19.498469 0
M  V30 79 H 8.109677 1.309314 -20.522733 0
M  V30 80 H 7.125526 0.329334 -19.442116 0
M  V30 81 H 6.692219 1.850034 -15.648496 0
M  V30 82 H 6.195070 2.064578 -17.288634 0
M  V30 83 H 7.272569 4.178202 -13.012398 0
M  V30 84 H 11.662615 9.547945 -7.792208 0
M  V30 85 H 13.345074 1.103705 -17.678411 0
M  V30 86 H 9.484080 5.586214 -15.604197 0
M  V30 87 H 7.841333 5.707351 -15.096307 0
M  V30 88 H 13.133933 6.516725 -16.225181 0
M  V30 89 H 12.992072 9.415557 -18.974995 0
M  V30 END ATOM
M  V30 BEGIN BOND
M  V30 1 1 5 3
M  V30 2 1 6 1 CFG=3
M  V30 3 1 6 2
M  V30 4 1 10 3
M  V30 5 1 11 5
M  V30 6 1 13 6
M  V30 7 1 16 9
M  V30 8 1 16 12
M  V30 9 1 18 2
M  V30 10 1 19 8
M  V30 11 1 22 1
M  V30 12 1 22 18
M  V30 13 2 22 21
M  V30 14 1 23 8
M  V30 15 1 23 10
M  V30 16 1 23 17
M  V30 17 1 24 4
M  V30 18 1 24 19
M  V30 19 2 25 16
M  V30 20 2 26 3
M  V30 21 1 28 8
M  V30 22 2 29 5
M  V30 23 1 29 7
M  V30 24 1 30 10
M  V30 25 1 30 14
M  V30 26 2 31 7
M  V30 27 1 31 26
M  V30 28 2 32 18
M  V30 29 1 33 6
M  V30 30 1 33 13
M  V30 31 1 34 32
M  V30 32 1 35 15
M  V30 33 1 35 27
M  V30 34 1 36 30
M  V30 35 1 37 11
M  V30 36 1 37 14
M  V30 37 1 38 9
M  V30 38 1 38 13
M  V30 39 1 38 20
M  V30 40 1 39 21
M  V30 41 2 39 34
M  V30 42 1 40 11
M  V30 43 1 41 17
M  V30 44 2 41 19
M  V30 45 1 42 20
M  V30 46 1 42 40
M  V30 47 1 43 4
M  V30 48 1 43 27
M  V30 49 1 43 28
M  V30 50 1 44 1
M  V30 51 1 45 2
M  V30 52 1 46 2
M  V30 53 1 47 4
M  V30 54 1 48 4
M  V30 55 1 49 7
M  V30 56 1 8 50 CFG=3
M  V30 57 1 10 51 CFG=3
M  V30 58 1 11 52 CFG=1
M  V30 59 1 53 12
M  V30 60 1 54 12
M  V30 61 1 13 55 CFG=3
M  V30 62 1 56 14
M  V30 63 1 57 14
M  V30 64 1 58 15
M  V30 65 1 59 15
M  V30 66 1 60 20
M  V30 67 1 61 20
M  V30 68 1 62 21
M  V30 69 1 63 24
M  V30 70 1 64 24
M  V30 71 1 65 26
M  V30 72 1 66 27
M  V30 73 1 67 28
M  V30 74 1 68 28
M  V30 75 1 69 29
M  V30 76 1 30 70 CFG=3
M  V30 77 1 71 31
M  V30 78 1 72 32
M  V30 79 1 73 33
M  V30 80 1 74 33
M  V30 81 1 75 34
M  V30 82 1 76 35
M  V30 83 1 77 35
M  V30 84 1 78 36
M  V30 85 1 79 36
M  V30 86 1 80 36
M  V30 87 1 81 37
M  V30 88 1 82 37
M  V30 89 1 38 83 CFG=3
M  V30 90 1 84 39
M  V30 91 1 85 41
M  V30 92 1 86 42
M  V30 93 1 87 42
M  V30 94 1 43 88 CFG=1
M  V30 95 1 89 15
M  V30 END BOND
M  V30 END CTAB
M  END
>  <i_epik_Tot_Q>  (1) 
1

>  <i_epik_Tot_abs_Q>  (1) 
1

>  <i_i_glide_confnum>  (1) 
280

>  <i_i_glide_lignum>  (1) 
66

>  <i_i_glide_posenum>  (1) 
86

>  <i_i_glide_rotatable_bonds>  (1) 
10

>  <i_lp_mmshare_version>  (1) 
72125

>  <i_m_source_file_index>  (1) 
41

>  <i_f3d_flags>  (1) 
0

>  <num_sample>  (1) 
100

>  <b_lp_Chiralities_Consistent>  (1) 
1

>  <r_epik_Charging_Adjusted_Penalty>  (1) 
0.00021732795814705282

>  <r_epik_Ionization_Penalty>  (1) 
0.031196808922400864

>  <r_epik_Ionization_Penalty_Charging>  (1) 
0.00021732795814705282

>  <r_epik_Ionization_Penalty_Neutral>  (1) 
0.030979480964253809

>  <r_epik_State_Penalty>  (1) 
-0

>  <r_glide_ring_energy>  (1) 
0

>  <r_i_docking_score>  (1) 
-5.5692117089655904

>  <r_i_glide_ecoul>  (1) 
-9.2791357582943235

>  <r_i_glide_eff_state_penalty>  (1) 
-0

>  <r_i_glide_einternal>  (1) 
12.770684722123262

>  <r_i_glide_emodel>  (1) 
-54.924000538141897

>  <r_i_glide_emodel_strain>  (1) 
2.2793137080288091

>  <r_i_glide_energy>  (1) 
-49.741232597218463

>  <r_i_glide_erotb>  (1) 
0.31563021086283022

>  <r_i_glide_esite>  (1) 
-0.20194038970011313

>  <r_i_glide_evdw>  (1) 
-40.46209683892414

>  <r_i_glide_gscore>  (1) 
-5.5692117089655904

>  <r_i_glide_gscore_strain>  (1) 
0

>  <r_i_glide_hbond>  (1) 
-0.16410106813784978

>  <r_i_glide_ligand_efficiency>  (1) 
-0.12951655137129281

>  <r_i_glide_ligand_efficiency_ln>  (1) 
-1.1697075471809539

>  <r_i_glide_ligand_efficiency_sa>  (1) 
-0.45374803486216481

>  <r_i_glide_lipo>  (1) 
-1.9094700622191565

>  <r_i_glide_metal>  (1) 
-0

>  <r_i_glide_rewards>  (1) 
-0.19435519408094559

>  <r_lp_Energy>  (1) 
52.272574999999996

>  <r_lp_tautomer_probability>  (1) 
1

>  <s_epik_Chemistry_Notes>  (1) 
This compound has an ester and may undergo hydrolysis at high or low pH. This compound contains an acetal/aminal-like group ( X-CH(R)-Y where X, Y are N, S, or O) that may be acid/base labile, releasing an aldehyde. This compound has a N-S or N-O group and may undergo hydrolysis at high or low pH.

>  <s_epik_cmdline>  (1) 
J2VwaWtfcHl0aG9uJywgJy1waHQnLCAnMS4wJywgJy1waCcsICc3LjQnLCAnLXRuJywgJzgnLCAnLW1hJywgJzUwMCcsICctaW1hZScsICc8aW5maWxlLm1hZT4nLCAnLW9tYWUnLCAnPG91dGZpbGUubWFlPic=

>  <s_epik_input>  (1) 
W2NIXTFbY0hdW2NIXVtjSF1jKFtDSDJdMiljMVtOSF1bQ0BAXTIzW0NAQEhdKFtDSDJdMylbQ0BASF0oT0MoPU8pW05IMl0pW0NIMl1bQ0gyXU9bQ0BASF0oYyhjNDUpW2NIXVtjSF1bY0hdW2NIXTUpW0NIMl1bQ0gyXVtDQEBIXShbQ0gzXSlbQ0BASF00TjZPW0NIXT1DKFtDQEBIXTY3KVtDSDJdW0NIMl1bQ0BIXShbQ0gyXTcpW05IXVtDSDJdW05IMl0=

>  <s_glide_docking_method>  (1) 
confgen

>  <s_i_glide_gridfile>  (1) 
gpcr_drd2_6luq_protein_autoprepared_prepared

>  <s_lp_Force_Field>  (1) 
S-OPLS

>  <s_lp_Variant>  (1) 
DiffSBDD_40-1

>  <s_m_source_file>  (1) 
generated_generic_title2_ligand_DiffSBDD_2026-06-23_prepared.sdf

>  <GenAI_Model>  (1) 
DiffSBDD

>  <Protein>  (1) 
generic_title2

$$$$
DiffSBDD_63
     RDKit          3D

  0  0  0  0  0  0  0  0  0  0999 V3000
M  V30 BEGIN CTAB
M  V30 COUNTS 47 48 0 0 1
M  V30 BEGIN ATOM
M  V30 1 C 5.375465 3.694526 -21.890362 0
M  V30 2 C 5.875358 5.370755 -19.676743 0
M  V30 3 C 9.976434 7.114903 -11.226856 0
M  V30 4 C 10.752761 6.748966 -12.266716 0
M  V30 5 C 5.946175 3.965885 -19.533674 0
M  V30 6 C 6.641028 5.161616 -14.012051 0
M  V30 7 C 10.200053 8.390206 -7.717466 0
M  V30 8 F 5.137754 2.891121 -22.953149 0
M  V30 9 C 6.584876 5.972377 -16.316119 0
M  V30 10 C 7.775057 6.827729 -12.450975 0
M  V30 11 C 10.645617 7.590236 -9.999870 0
M  V30 12 O 11.865490 7.701359 -9.859592 0
M  V30 13 N 7.023963 5.714649 -17.471501 0
M  V30 14 C 5.400725 8.013994 -15.427068 0
M  V30 15 S 10.557659 6.991911 -6.622066 0
M  V30 16 C 5.696775 3.131323 -20.640691 0
M  V30 17 F 5.472835 7.276396 -21.075487 0
M  V30 18 C 5.298982 5.092408 -22.035233 0
M  V30 19 S 4.567496 6.790218 -17.728097 0
M  V30 20 C 5.255577 6.639150 -16.081299 0 CFG=1
M  V30 21 O 7.297794 5.704457 -15.162283 0
M  V30 22 C 7.563254 5.341692 -12.790456 0
M  V30 23 N 8.575406 7.067512 -11.256404 0
M  V30 24 N 9.775408 7.899323 -9.022072 0
M  V30 25 C 6.144947 6.284136 -18.484048 0 CFG=2
M  V30 26 C 5.548185 5.931094 -20.931719 0
M  V30 27 H 6.192505 3.529460 -18.576823 0
M  V30 28 H 5.687808 5.627153 -13.768141 0
M  V30 29 H 6.445870 4.102262 -14.183831 0
M  V30 30 H 11.075163 9.038750 -7.789765 0
M  V30 31 H 9.391225 8.977729 -7.282362 0
M  V30 32 H 8.191636 7.369786 -13.299237 0
M  V30 33 H 6.803631 7.285663 -12.262747 0
M  V30 34 H 5.781544 7.928647 -14.411551 0
M  V30 35 H 4.442178 8.529172 -15.380672 0
M  V30 36 H 6.087043 8.652851 -15.985221 0
M  V30 37 H 9.321904 6.482447 -6.644613 0
M  V30 38 H 5.752484 2.057768 -20.531475 0
M  V30 39 H 5.049930 5.521981 -22.994321 0
M  V30 40 H 4.575410 5.990228 -15.535387 0
M  V30 41 H 8.520175 4.853009 -12.976052 0
M  V30 42 H 7.120587 4.837176 -11.930569 0
M  V30 43 H 8.779595 7.792147 -9.185055 0
M  V30 44 H 6.621157 7.190221 -18.860833 0
M  V30 45 H 10.320140 6.390230 -13.185023 0
M  V30 46 H 11.830466 6.802137 -12.207913 0
M  V30 47 H 8.048735 7.388753 -10.435680 0
M  V30 END ATOM
M  V30 BEGIN BOND
M  V30 1 2 4 3
M  V30 2 1 5 2
M  V30 3 1 8 1
M  V30 4 1 11 3
M  V30 5 2 12 11
M  V30 6 2 13 9
M  V30 7 1 15 7
M  V30 8 1 16 1
M  V30 9 2 16 5
M  V30 10 2 18 1
M  V30 11 1 20 9
M  V30 12 1 20 14
M  V30 13 1 20 19
M  V30 14 1 21 6
M  V30 15 1 21 9
M  V30 16 1 22 6
M  V30 17 1 22 10
M  V30 18 1 23 3
M  V30 19 1 23 10
M  V30 20 1 24 7
M  V30 21 1 24 11
M  V30 22 1 25 2
M  V30 23 1 25 13
M  V30 24 1 25 19
M  V30 25 2 26 2
M  V30 26 1 26 17
M  V30 27 1 26 18
M  V30 28 1 27 5
M  V30 29 1 28 6
M  V30 30 1 29 6
M  V30 31 1 30 7
M  V30 32 1 31 7
M  V30 33 1 32 10
M  V30 34 1 33 10
M  V30 35 1 34 14
M  V30 36 1 35 14
M  V30 37 1 36 14
M  V30 38 1 37 15
M  V30 39 1 38 16
M  V30 40 1 39 18
M  V30 41 1 20 40 CFG=1
M  V30 42 1 41 22
M  V30 43 1 42 22
M  V30 44 1 43 24
M  V30 45 1 25 44 CFG=3
M  V30 46 1 45 4
M  V30 47 1 46 4
M  V30 48 1 47 23
M  V30 END BOND
M  V30 END CTAB
M  END
>  <i_epik_Tot_Q>  (1) 
0

>  <i_epik_Tot_abs_Q>  (1) 
0

>  <i_i_glide_confnum>  (1) 
354

>  <i_i_glide_lignum>  (1) 
101

>  <i_i_glide_posenum>  (1) 
223

>  <i_i_glide_rotatable_bonds>  (1) 
11

>  <i_lp_mmshare_version>  (1) 
72125

>  <i_m_source_file_index>  (1) 
64

>  <i_f3d_flags>  (1) 
0

>  <num_sample>  (1) 
100

>  <b_lp_Chiralities_Consistent>  (1) 
1

>  <r_epik_Charging_Adjusted_Penalty>  (1) 
0.013849271164821807

>  <r_epik_Ionization_Penalty>  (1) 
0.12391676861929035

>  <r_epik_Ionization_Penalty_Charging>  (1) 
0.013849271164821807

>  <r_epik_Ionization_Penalty_Neutral>  (1) 
0.11006749745446855

>  <r_epik_State_Penalty>  (1) 
-0

>  <r_glide_ring_energy>  (1) 
0

>  <r_i_docking_score>  (1) 
-5.5685594573697346

>  <r_i_glide_ecoul>  (1) 
-7.8768654707054946

>  <r_i_glide_eff_state_penalty>  (1) 
-0

>  <r_i_glide_einternal>  (1) 
2.3737710214248091

>  <r_i_glide_emodel>  (1) 
-57.392982285504473

>  <r_i_glide_emodel_strain>  (1) 
0.49118784395945525

>  <r_i_glide_energy>  (1) 
-43.67191218567757

>  <r_i_glide_erotb>  (1) 
1.2167697096945405

>  <r_i_glide_esite>  (1) 
-0.21011422490206566

>  <r_i_glide_evdw>  (1) 
-35.795046714972074

>  <r_i_glide_gscore>  (1) 
-5.5685594573697346

>  <r_i_glide_gscore_strain>  (1) 
0

>  <r_i_glide_hbond>  (1) 
-0.30399999999999999

>  <r_i_glide_ligand_efficiency>  (1) 
-0.2141753637449898

>  <r_i_glide_ligand_efficiency_ln>  (1) 
-1.3077579166293767

>  <r_i_glide_ligand_efficiency_sa>  (1) 
-0.63449367304425086

>  <r_i_glide_lipo>  (1) 
-1.7116680082049733

>  <r_i_glide_metal>  (1) 
-0

>  <r_i_glide_rewards>  (1) 
-1.5882647776028078

>  <r_lp_Energy>  (1) 
17.542904

>  <r_lp_tautomer_probability>  (1) 
1

>  <s_epik_Chemistry_Notes>  (1) 
This compound has an imine and may undergo hydrolysis. This compound contains an acetal/aminal-like group ( X-CH(R)-Y where X, Y are N, S, or O) that may be acid/base labile, releasing an aldehyde.

>  <s_epik_cmdline>  (1) 
J2VwaWtfcHl0aG9uJywgJy1waHQnLCAnMS4wJywgJy1waCcsICc3LjQnLCAnLXRuJywgJzgnLCAnLW1hJywgJzUwMCcsICctaW1hZScsICc8aW5maWxlLm1hZT4nLCAnLW9tYWUnLCAnPG91dGZpbGUubWFlPic=

>  <s_epik_input>  (1) 
RmMxW2NIXVtjSF1jKGMoRilbY0hdMSlbQ0BIXShTW0NAQEhdMltDSDNdKU49QzJPW0NIMl1bQ0gyXVtDSDJdW05IXUMoPVtDSDJdKUMoPU8pW05IXVtDSDJdW1NIXQ==

>  <s_glide_docking_method>  (1) 
confgen

>  <s_i_glide_gridfile>  (1) 
gpcr_drd2_6luq_protein_autoprepared_prepared

>  <s_lp_Force_Field>  (1) 
S-OPLS

>  <s_lp_Variant>  (1) 
DiffSBDD_63-2

>  <s_m_source_file>  (1) 
generated_generic_title2_ligand_DiffSBDD_2026-06-23_prepared.sdf

>  <GenAI_Model>  (1) 
DiffSBDD

>  <Protein>  (1) 
generic_title2

$$$$
DiffSBDD_42
     RDKit          3D

  0  0  0  0  0  0  0  0  0  0999 V3000
M  V30 BEGIN CTAB
M  V30 COUNTS 66 71 0 0 1
M  V30 BEGIN ATOM
M  V30 1 C 5.954739 5.427688 -12.377220 0
M  V30 2 C 9.312447 6.097587 -10.875084 0 CFG=2
M  V30 3 C 6.669575 4.232543 -14.737984 0 CFG=2
M  V30 4 C 8.156092 4.166815 -14.797497 0
M  V30 5 C 7.458574 5.796621 -12.810861 0 CFG=1
M  V30 6 N 11.117793 7.334773 -4.835009 0
M  V30 7 C 10.605981 8.201982 -9.818893 0 CFG=2
M  V30 8 C 6.377374 5.802164 -14.988387 0
M  V30 9 C 7.349521 4.371757 -11.034294 0
M  V30 10 C 10.741759 6.901473 -9.060319 0 CFG=2
M  V30 11 F 12.805124 9.190243 -6.323245 0
M  V30 12 C 9.653165 5.875123 -9.373132 0 CFG=1
M  V30 13 S 9.775426 7.781035 -11.358412 0
M  V30 14 O 9.775003 5.539367 -13.810282 0
M  V30 15 C 7.039205 6.774202 -13.904874 0
M  V30 16 C 11.444784 9.378773 -6.236757 0
M  V30 17 C 11.073831 7.094401 -7.605462 0
M  V30 18 C 12.813154 6.676641 -1.683198 0
M  V30 19 C 10.519733 8.293287 -6.917724 0
M  V30 20 C 6.197731 3.398876 -13.425853 0
M  V30 21 C 7.874705 5.807006 -11.332316 0 CFG=1
M  V30 22 C 10.609791 8.331207 -5.644181 0
M  V30 23 C 8.575410 5.831980 -8.278047 0
M  V30 24 C 12.975410 7.990205 -1.185131 0
M  V30 25 C 6.154882 4.059070 -11.991162 0 CFG=2
M  V30 26 C 12.502515 9.071492 -1.912045 0
M  V30 27 O 11.775412 6.260256 -7.051792 0
M  V30 28 C 11.775410 7.564347 -3.648531 0
M  V30 29 C 8.579038 4.849648 -13.515547 0 CFG=2
M  V30 30 C 12.205651 6.476346 -2.905027 0
M  V30 31 F 10.975424 10.641000 -5.985029 0
M  V30 32 C 12.023542 8.790247 -9.985022 0
M  V30 33 C 11.923790 8.873156 -3.152600 0
M  V30 34 H 5.528493 6.024215 -11.566025 0
M  V30 35 H 5.106421 5.491506 -13.054719 0
M  V30 36 H 10.008457 5.444926 -11.395235 0
M  V30 37 H 6.317560 3.670031 -15.585026 0
M  V30 38 H 8.531312 4.671996 -15.689486 0
M  V30 39 H 8.508610 3.136809 -14.846595 0
M  V30 40 H 10.815285 6.379494 -4.976484 0
M  V30 41 H 9.941822 8.907472 -9.316807 0
M  V30 42 H 6.752194 6.090760 -15.971375 0
M  V30 43 H 5.305334 5.983956 -15.071667 0
M  V30 44 H 6.962521 4.273302 -10.026362 0
M  V30 45 H 8.128740 3.614194 -11.100490 0
M  V30 46 H 11.649596 6.460962 -9.452246 0
M  V30 47 H 10.101312 4.882340 -9.316868 0
M  V30 48 H 10.476504 4.911206 -13.938080 0
M  V30 49 H 7.890272 7.305343 -14.320848 0
M  V30 50 H 6.340624 7.537708 -13.557345 0
M  V30 51 H 13.163679 5.829980 -1.111009 0
M  V30 52 H 5.163121 3.099586 -13.585026 0
M  V30 53 H 6.736522 2.451536 -13.367215 0
M  V30 54 H 7.285935 6.505986 -10.785031 0
M  V30 55 H 8.390287 6.823534 -7.883367 0
M  V30 56 H 7.606541 5.474106 -8.582965 0
M  V30 57 H 8.889592 5.212495 -7.439300 0
M  V30 58 H 13.453795 8.141831 -0.237753 0
M  V30 59 H 5.324514 3.663763 -11.410754 0
M  V30 60 H 12.575401 10.048785 -1.512729 0
M  V30 61 H 8.934513 4.036529 -12.894090 0
M  V30 62 H 12.071753 5.481139 -3.282567 0
M  V30 63 H 12.566598 8.875980 -9.044300 0
M  V30 64 H 12.629590 8.172530 -10.648960 0
M  V30 65 H 12.010641 9.796501 -10.385007 0
M  V30 66 H 11.554364 9.719071 -3.707925 0
M  V30 END ATOM
M  V30 BEGIN BOND
M  V30 1 1 4 3
M  V30 2 1 5 1
M  V30 3 1 8 3
M  V30 4 1 10 7
M  V30 5 1 12 2
M  V30 6 1 12 10
M  V30 7 1 13 2
M  V30 8 1 13 7
M  V30 9 1 5 15 CFG=3
M  V30 10 1 15 8
M  V30 11 1 16 11
M  V30 12 1 17 10
M  V30 13 1 19 16
M  V30 14 1 19 17
M  V30 15 1 20 3
M  V30 16 1 21 2
M  V30 17 1 21 5
M  V30 18 1 21 9
M  V30 19 1 22 6
M  V30 20 1 22 16
M  V30 21 2 22 19
M  V30 22 1 23 12
M  V30 23 2 24 18
M  V30 24 1 25 1
M  V30 25 1 25 9
M  V30 26 1 25 20
M  V30 27 1 26 24
M  V30 28 2 27 17
M  V30 29 1 28 6
M  V30 30 1 29 4
M  V30 31 1 29 5
M  V30 32 1 29 14
M  V30 33 1 30 18
M  V30 34 2 30 28
M  V30 35 1 31 16
M  V30 36 1 32 7
M  V30 37 2 33 26
M  V30 38 1 33 28
M  V30 39 1 34 1
M  V30 40 1 35 1
M  V30 41 1 2 36 CFG=3
M  V30 42 1 3 37 CFG=3
M  V30 43 1 38 4
M  V30 44 1 39 4
M  V30 45 1 40 6
M  V30 46 1 7 41 CFG=1
M  V30 47 1 42 8
M  V30 48 1 43 8
M  V30 49 1 44 9
M  V30 50 1 45 9
M  V30 51 1 10 46 CFG=3
M  V30 52 1 12 47 CFG=3
M  V30 53 1 48 14
M  V30 54 1 49 15
M  V30 55 1 50 15
M  V30 56 1 51 18
M  V30 57 1 52 20
M  V30 58 1 53 20
M  V30 59 1 21 54 CFG=1
M  V30 60 1 55 23
M  V30 61 1 56 23
M  V30 62 1 57 23
M  V30 63 1 58 24
M  V30 64 1 25 59 CFG=1
M  V30 65 1 60 26
M  V30 66 1 29 61 CFG=1
M  V30 67 1 62 30
M  V30 68 1 63 32
M  V30 69 1 64 32
M  V30 70 1 65 32
M  V30 71 1 66 33
M  V30 END BOND
M  V30 END CTAB
M  END
>  <i_epik_Tot_Q>  (1) 
0

>  <i_epik_Tot_abs_Q>  (1) 
0

>  <i_i_glide_confnum>  (1) 
49

>  <i_i_glide_lignum>  (1) 
68

>  <i_i_glide_posenum>  (1) 
127

>  <i_i_glide_rotatable_bonds>  (1) 
6

>  <i_lp_mmshare_version>  (1) 
72125

>  <i_m_source_file_index>  (1) 
43

>  <i_f3d_flags>  (1) 
0

>  <num_sample>  (1) 
100

>  <b_lp_Chiralities_Consistent>  (1) 
1

>  <r_epik_Charging_Adjusted_Penalty>  (1) 
0

>  <r_epik_Ionization_Penalty>  (1) 
0.00038533319757004503

>  <r_epik_Ionization_Penalty_Charging>  (1) 
0

>  <r_epik_Ionization_Penalty_Neutral>  (1) 
0.00038533319757004503

>  <r_epik_State_Penalty>  (1) 
-0

>  <r_glide_ring_energy>  (1) 
0

>  <r_i_docking_score>  (1) 
-5.5677968357995615

>  <r_i_glide_ecoul>  (1) 
-5.949651574356186

>  <r_i_glide_eff_state_penalty>  (1) 
-0

>  <r_i_glide_einternal>  (1) 
57.1552221721807

>  <r_i_glide_emodel>  (1) 
24.628831384047039

>  <r_i_glide_emodel_strain>  (1) 
3.9479367320904544

>  <r_i_glide_energy>  (1) 
-1.5836958536281456

>  <r_i_glide_erotb>  (1) 
0.45088358732322803

>  <r_i_glide_esite>  (1) 
0

>  <r_i_glide_evdw>  (1) 
4.3659557207280404

>  <r_i_glide_gscore>  (1) 
-5.5677968357995615

>  <r_i_glide_gscore_strain>  (1) 
0

>  <r_i_glide_hbond>  (1) 
-0.32000000000000001

>  <r_i_glide_ligand_efficiency>  (1) 
-0.16872111623635036

>  <r_i_glide_ligand_efficiency_ln>  (1) 
-1.2382491877726753

>  <r_i_glide_ligand_efficiency_sa>  (1) 
-0.54117877252331004

>  <r_i_glide_lipo>  (1) 
-3.1637232082639701

>  <r_i_glide_metal>  (1) 
-0

>  <r_i_glide_rewards>  (1) 
-1.8608072647417924

>  <r_lp_Energy>  (1) 
137.051188

>  <r_lp_tautomer_probability>  (1) 
1

>  <s_epik_cmdline>  (1) 
J2VwaWtfcHl0aG9uJywgJy1waHQnLCAnMS4wJywgJy1waCcsICc3LjQnLCAnLXRuJywgJzgnLCAnLW1hJywgJzUwMCcsICctaW1hZScsICc8aW5maWxlLm1hZT4nLCAnLW9tYWUnLCAnPG91dGZpbGUubWFlPic=

>  <s_epik_input>  (1) 
W09IXVtDQEBIXTFbQ0gyXVtDQEhdKFtDSDJdW0NIMl0yKVtDSDJdW0NASF0oW0NIMl1DMTIzKVtDSDJdW0NASF0zW0NAQEhdNFtDQEhdKFtDSDNdKVtDQEBIXShbQ0BIXShTNClbQ0gzXSlDKD1PKUMoQzUoRilGKT1DNVtOSF1jNltjSF1bY0hdW2NIXVtjSF1bY0hdNg==

>  <s_glide_docking_method>  (1) 
confgen

>  <s_i_glide_gridfile>  (1) 
gpcr_drd2_6luq_protein_autoprepared_prepared

>  <s_lp_Force_Field>  (1) 
S-OPLS

>  <s_lp_Variant>  (1) 
DiffSBDD_42-1

>  <s_m_source_file>  (1) 
generated_generic_title2_ligand_DiffSBDD_2026-06-23_prepared.sdf

>  <GenAI_Model>  (1) 
DiffSBDD

>  <Protein>  (1) 
generic_title2

$$$$
DiffSBDD_51
     RDKit          3D

  0  0  0  0  0  0  0  0  0  0999 V3000
M  V30 BEGIN CTAB
M  V30 COUNTS 67 70 0 0 1
M  V30 BEGIN ATOM
M  V30 1 C 9.913153 6.632731 -5.908343 0
M  V30 2 C 8.275684 6.392149 -11.185395 0
M  V30 3 C 9.873096 6.454153 -8.432709 0
M  V30 4 C 9.777398 6.176827 -10.967094 0 CFG=1
M  V30 5 C 5.960315 -0.832382 -16.535889 0
M  V30 6 N 4.956309 -2.786382 -17.584699 0
M  V30 7 C 6.508149 4.763541 -15.061022 0
M  V30 8 N 7.764173 5.776823 -12.406609 0
M  V30 9 C 8.344805 1.804946 -17.920725 0
M  V30 10 C 10.320741 7.126692 -7.275490 0
M  V30 11 C 7.450864 0.614278 -17.830254 0
M  V30 12 C 6.421191 -1.334286 -18.883183 0
M  V30 13 C 7.257483 -0.205610 -18.963024 0
M  V30 14 C 7.605877 4.318719 -12.356203 0 CFG=1
M  V30 15 C 5.847473 4.195853 -10.787695 0
M  V30 16 N 7.381990 2.560056 -15.742092 0
M  V30 17 C 10.603148 6.505205 -12.235253 0
M  V30 18 C 7.461285 6.569200 -13.520355 0
M  V30 19 C 8.575199 2.606287 -16.618115 0 CFG=2
M  V30 20 C 6.794101 0.303584 -16.612566 0
M  V30 21 C 11.086923 8.055256 -9.819904 0
M  V30 22 O 8.903413 2.115126 -18.974809 0
M  V30 23 C 6.989403 1.185878 -15.386457 0
M  V30 24 C 4.672484 -3.614370 -18.607710 0
M  V30 25 N 4.381440 -4.298318 -19.494269 0
M  V30 26 O 6.310857 3.871201 -12.092102 0
M  V30 27 N 7.221241 3.538217 -14.695990 0
M  V30 28 C 11.148951 8.259655 -7.393939 0
M  V30 29 C 9.054322 4.042307 -16.951142 0
M  V30 30 C 10.255129 6.916354 -9.710014 0
M  V30 31 C 6.922576 6.174840 -14.694334 0
M  V30 32 C 11.530527 8.721848 -8.664987 0
M  V30 33 C 8.174018 3.616527 -13.597640 0
M  V30 34 C 5.775627 -1.654705 -17.669036 0
M  V30 35 H 9.775488 7.471918 -5.228936 0
M  V30 36 H 10.685382 5.989934 -5.487733 0
M  V30 37 H 8.976903 6.076449 -5.964576 0
M  V30 38 H 8.072435 7.462993 -11.204145 0
M  V30 39 H 7.734790 5.990248 -10.329716 0
M  V30 40 H 9.238510 5.584578 -8.341078 0
M  V30 41 H 9.915103 5.115825 -10.759033 0
M  V30 42 H 5.464463 -1.075567 -15.606722 0
M  V30 43 H 4.575362 -3.000417 -16.665163 0
M  V30 44 H 6.472054 4.791084 -16.149608 0
M  V30 45 H 5.476987 4.658149 -14.727310 0
M  V30 46 H 6.279986 -1.958355 -19.752376 0
M  V30 47 H 7.752875 0.030152 -19.894072 0
M  V30 48 H 8.211713 3.974366 -11.518006 0
M  V30 49 H 5.570187 5.247621 -10.722507 0
M  V30 50 H 6.589821 3.990446 -10.016154 0
M  V30 51 H 4.975392 3.596019 -10.546689 0
M  V30 52 H 11.674043 6.390380 -12.067686 0
M  V30 53 H 10.422629 7.524115 -12.576628 0
M  V30 54 H 10.348463 5.846106 -13.063624 0
M  V30 55 H 7.705321 7.610165 -13.364822 0
M  V30 56 H 9.375439 2.084493 -16.096328 0
M  V30 57 H 11.386541 8.417227 -10.785136 0
M  V30 58 H 7.756313 0.741748 -14.750191 0
M  V30 59 H 6.065136 1.206897 -14.807986 0
M  V30 60 H 11.491103 8.774438 -6.508469 0
M  V30 61 H 9.971249 4.028263 -17.540965 0
M  V30 62 H 9.280910 4.629262 -16.062806 0
M  V30 63 H 8.307240 4.587891 -17.527919 0
M  V30 64 H 6.746235 6.921563 -15.454496 0
M  V30 65 H 12.165336 9.590209 -8.756154 0
M  V30 66 H 9.089189 4.114348 -13.910357 0
M  V30 67 H 8.440978 2.602105 -13.301624 0
M  V30 END ATOM
M  V30 BEGIN BOND
M  V30 1 1 4 2
M  V30 2 1 8 2
M  V30 3 1 10 1
M  V30 4 2 10 3
M  V30 5 1 11 9
M  V30 6 1 13 11
M  V30 7 2 13 12
M  V30 8 1 14 8
M  V30 9 1 17 4
M  V30 10 1 18 8
M  V30 11 1 19 9
M  V30 12 1 19 16
M  V30 13 1 20 5
M  V30 14 2 20 11
M  V30 15 2 22 9
M  V30 16 1 23 16
M  V30 17 1 23 20
M  V30 18 1 24 6
M  V30 19 3 25 24
M  V30 20 1 26 14
M  V30 21 1 26 15
M  V30 22 1 27 7
M  V30 23 1 27 16
M  V30 24 1 28 10
M  V30 25 1 29 19
M  V30 26 1 30 3
M  V30 27 1 30 4
M  V30 28 2 30 21
M  V30 29 1 31 7
M  V30 30 2 31 18
M  V30 31 1 32 21
M  V30 32 2 32 28
M  V30 33 1 33 14
M  V30 34 1 33 27
M  V30 35 2 34 5
M  V30 36 1 34 6
M  V30 37 1 34 12
M  V30 38 1 35 1
M  V30 39 1 36 1
M  V30 40 1 37 1
M  V30 41 1 38 2
M  V30 42 1 39 2
M  V30 43 1 40 3
M  V30 44 1 4 41 CFG=1
M  V30 45 1 42 5
M  V30 46 1 43 6
M  V30 47 1 44 7
M  V30 48 1 45 7
M  V30 49 1 46 12
M  V30 50 1 47 13
M  V30 51 1 14 48 CFG=1
M  V30 52 1 49 15
M  V30 53 1 50 15
M  V30 54 1 51 15
M  V30 55 1 52 17
M  V30 56 1 53 17
M  V30 57 1 54 17
M  V30 58 1 55 18
M  V30 59 1 19 56 CFG=1
M  V30 60 1 57 21
M  V30 61 1 58 23
M  V30 62 1 59 23
M  V30 63 1 60 28
M  V30 64 1 61 29
M  V30 65 1 62 29
M  V30 66 1 63 29
M  V30 67 1 64 31
M  V30 68 1 65 32
M  V30 69 1 66 33
M  V30 70 1 67 33
M  V30 END BOND
M  V30 END CTAB
M  END
>  <i_epik_Tot_Q>  (1) 
0

>  <i_epik_Tot_abs_Q>  (1) 
0

>  <i_i_glide_confnum>  (1) 
12

>  <i_i_glide_lignum>  (1) 
80

>  <i_i_glide_posenum>  (1) 
250

>  <i_i_glide_rotatable_bonds>  (1) 
6

>  <i_lp_mmshare_version>  (1) 
72125

>  <i_m_source_file_index>  (1) 
52

>  <i_f3d_flags>  (1) 
0

>  <num_sample>  (1) 
100

>  <b_lp_Chiralities_Consistent>  (1) 
1

>  <r_epik_Charging_Adjusted_Penalty>  (1) 
7.4502254237452924e-08

>  <r_epik_Ionization_Penalty>  (1) 
0.00022335133816854321

>  <r_epik_Ionization_Penalty_Charging>  (1) 
7.4502254237452924e-08

>  <r_epik_Ionization_Penalty_Neutral>  (1) 
0.00022327683591430577

>  <r_epik_State_Penalty>  (1) 
-0

>  <r_glide_ring_energy>  (1) 
0

>  <r_i_docking_score>  (1) 
-5.5668715112218186

>  <r_i_glide_ecoul>  (1) 
-2.4590620061629207

>  <r_i_glide_eff_state_penalty>  (1) 
-0

>  <r_i_glide_einternal>  (1) 
5.3204426760976142

>  <r_i_glide_emodel>  (1) 
-51.927485618213787

>  <r_i_glide_emodel_strain>  (1) 
0.99967819296632854

>  <r_i_glide_energy>  (1) 
-43.080586702263275

>  <r_i_glide_erotb>  (1) 
0.47630443723403276

>  <r_i_glide_esite>  (1) 
-0.090358912589386053

>  <r_i_glide_evdw>  (1) 
-40.621524696100352

>  <r_i_glide_gscore>  (1) 
-5.5668715112218186

>  <r_i_glide_gscore_strain>  (1) 
0

>  <r_i_glide_hbond>  (1) 
-0.13937493850800123

>  <r_i_glide_ligand_efficiency>  (1) 
-0.16373151503593583

>  <r_i_glide_ligand_efficiency_ln>  (1) 
-1.2298780622857903

>  <r_i_glide_ligand_efficiency_sa>  (1) 
-0.53042654835145953

>  <r_i_glide_lipo>  (1) 
-1.8700683309302712

>  <r_i_glide_metal>  (1) 
-0

>  <r_i_glide_rewards>  (1) 
-1.5434382306987364

>  <r_lp_Energy>  (1) 
38.248024999999998

>  <r_lp_tautomer_probability>  (1) 
1

>  <s_epik_Chemistry_Notes>  (1) 
This compound has an imine and may undergo hydrolysis. This compound contains an acetal/aminal-like group ( X-CH(R)-Y where X, Y are N, S, or O) that may be acid/base labile, releasing an aldehyde.

>  <s_epik_cmdline>  (1) 
J2VwaWtfcHl0aG9uJywgJy1waHQnLCAnMS4wJywgJy1waCcsICc3LjQnLCAnLXRuJywgJzgnLCAnLW1hJywgJzUwMCcsICctaW1hZScsICc8aW5maWxlLm1hZT4nLCAnLW9tYWUnLCAnPG91dGZpbGUubWFlPic=

>  <s_epik_input>  (1) 
W0NIM11jMVtjSF1jKFtjSF1bY0hdW2NIXTEpW0NASF0oW0NIM10pW0NIMl1OMltDQEBIXShPW0NIM10pW0NIMl1OKFtDSDJdW0NIXT1bQ0hdMilOKFtDQEBIXShDMz1PKVtDSDNdKVtDSDJdYyhjMzQpW2NIXWMoW05IXUMjTilbY0hdW2NIXTQ=

>  <s_glide_docking_method>  (1) 
confgen

>  <s_i_glide_gridfile>  (1) 
gpcr_drd2_6luq_protein_autoprepared_prepared

>  <s_lp_Force_Field>  (1) 
S-OPLS

>  <s_lp_Variant>  (1) 
DiffSBDD_51-1

>  <s_m_source_file>  (1) 
generated_generic_title2_ligand_DiffSBDD_2026-06-23_prepared.sdf

>  <GenAI_Model>  (1) 
DiffSBDD

>  <Protein>  (1) 
generic_title2

$$$$
DiffSBDD_90
     RDKit          3D

  0  0  0  0  0  0  0  0  0  0999 V3000
M  V30 BEGIN CTAB
M  V30 COUNTS 80 84 0 0 1
M  V30 BEGIN ATOM
M  V30 1 C 8.586382 4.131111 -11.801647 0
M  V30 2 C 8.228705 5.581870 -11.514263 0 CFG=1
M  V30 3 C 10.406850 7.261363 -9.098231 0
M  V30 4 C 11.231900 5.245206 -16.895993 0 CFG=2
M  V30 5 C 10.429856 7.060051 -11.278484 0
M  V30 6 C 10.847752 7.732422 -7.805912 0 CFG=2
M  V30 7 C 8.142154 5.534418 -15.333450 0 CFG=2
M  V30 8 O 8.175413 2.963871 -13.735160 0 CHG=-1
M  V30 9 C 8.820734 4.021962 -13.321851 0 CFG=1
M  V30 10 C 13.522658 5.405261 -17.989768 0
M  V30 11 O 14.733490 2.728686 -16.914463 0
M  V30 12 C 9.328953 6.354947 -10.812918 0
M  V30 13 C 7.763768 7.601305 -13.184428 0 CFG=2
M  V30 14 O 13.633602 0.971124 -17.769985 0 CHG=-1
M  V30 15 O 11.438650 6.148249 -15.985021 0 CHG=-1
M  V30 16 C 8.776629 4.534707 -16.371928 0 CFG=2
M  V30 17 N 10.253254 4.390229 -16.203006 0 CHG=1
M  V30 18 N 8.017615 5.086967 -13.906511 0 CFG=1 CHG=1
M  V30 19 C 11.308605 1.673332 -19.220087 0
M  V30 20 C 8.421162 4.798108 -17.864191 0
M  V30 21 O 7.775779 8.478755 -12.068918 0
M  V30 22 O 7.144885 4.306969 -18.222654 0
M  V30 23 O 5.375418 7.856295 -15.184916 0
M  V30 24 C 6.480461 6.838253 -13.250849 0 CFG=1
M  V30 25 C 13.743886 2.174672 -17.446223 0
M  V30 26 C 6.712589 5.961680 -15.726702 0
M  V30 27 N 11.028953 7.590239 -10.161146 0
M  V30 28 O 12.136000 1.320963 -20.062221 0
M  V30 29 C 12.149419 8.453815 -8.391212 0
M  V30 30 N 9.375398 6.499874 -9.438826 0 CHG=1
M  V30 31 C 12.607420 4.519047 -17.112867 0 CFG=2
M  V30 32 O 11.377441 7.597713 -4.728464 0
M  V30 33 O 11.147008 6.699507 -6.879890 0
M  V30 34 C 10.582247 6.879277 -5.615857 0
M  V30 35 C 9.984234 0.928660 -19.086728 0
M  V30 36 C 12.505492 3.090611 -17.705340 0
M  V30 37 C 5.838557 6.639937 -14.635799 0 CFG=2
M  V30 38 C 11.495584 8.991993 -4.957684 0
M  V30 39 N 11.431143 2.735370 -18.337272 0
M  V30 40 C 12.175644 8.426058 -9.994519 0
M  V30 41 C 7.785521 6.125767 -12.868807 0 CFG=1
M  V30 42 H 9.403451 3.734021 -11.198319 0
M  V30 43 H 7.684019 3.590234 -11.528044 0
M  V30 44 H 7.359555 5.605262 -10.853394 0
M  V30 45 H 10.873579 5.499100 -17.891370 0
M  V30 46 H 10.800123 7.225796 -12.280311 0
M  V30 47 H 10.096422 8.450533 -7.472501 0
M  V30 48 H 8.783785 6.390226 -15.382418 0
M  V30 49 H 9.862920 4.259245 -13.511831 0
M  V30 50 H 14.525247 4.991074 -18.091743 0
M  V30 51 H 13.112784 5.527591 -18.992196 0
M  V30 52 H 13.632877 6.399677 -17.557329 0
M  V30 53 H 8.175405 7.990381 -14.093210 0
M  V30 54 H 8.383139 3.541359 -16.163768 0
M  V30 55 H 10.514602 4.417627 -15.228674 0
M  V30 56 H 9.110031 4.275814 -18.528741 0
M  V30 57 H 8.493298 5.860208 -18.104607 0
M  V30 58 H 7.375379 8.070555 -11.305179 0
M  V30 59 H 7.163294 3.360599 -18.214290 0
M  V30 60 H 4.796300 8.277167 -14.565736 0
M  V30 61 H 5.765252 7.020823 -12.449487 0
M  V30 62 H 6.752285 6.580160 -16.624604 0
M  V30 63 H 6.175410 5.063590 -16.020669 0
M  V30 64 H 12.175277 9.482442 -8.038499 0
M  V30 65 H 13.046116 7.966653 -8.005683 0
M  V30 66 H 13.081218 4.412852 -16.132925 0
M  V30 67 H 9.566789 7.277531 -5.662247 0
M  V30 68 H 10.506942 5.890070 -5.172301 0
M  V30 69 H 9.629027 0.939775 -18.055788 0
M  V30 70 H 9.227803 1.388885 -19.721540 0
M  V30 71 H 10.101901 -0.111658 -19.391118 0
M  V30 72 H 4.975405 5.998173 -14.476156 0
M  V30 73 H 11.891087 9.471182 -4.061908 0
M  V30 74 H 12.196072 9.195171 -5.764493 0
M  V30 75 H 10.538501 9.457262 -5.190255 0
M  V30 76 H 13.071017 7.990257 -10.428960 0
M  V30 77 H 11.978069 9.419984 -10.385024 0
M  V30 78 H 8.697461 6.119218 -8.788023 0
M  V30 79 H 10.464008 3.464433 -16.550939 0
M  V30 80 H 7.162484 4.549523 -13.924966 0
M  V30 END ATOM
M  V30 BEGIN BOND
M  V30 1 1 2 1
M  V30 2 1 6 3
M  V30 3 1 9 1
M  V30 4 1 9 8
M  V30 5 1 12 2
M  V30 6 2 12 5
M  V30 7 1 15 4
M  V30 8 1 16 7
M  V30 9 1 17 4
M  V30 10 1 17 16
M  V30 11 1 18 7
M  V30 12 1 18 9
M  V30 13 1 20 16
M  V30 14 1 21 13
M  V30 15 1 22 20
M  V30 16 1 24 13
M  V30 17 2 25 11
M  V30 18 1 25 14
M  V30 19 1 26 7
M  V30 20 1 27 3
M  V30 21 1 27 5
M  V30 22 2 28 19
M  V30 23 1 29 6
M  V30 24 2 30 3
M  V30 25 1 30 12
M  V30 26 1 31 4
M  V30 27 1 31 10
M  V30 28 1 33 6
M  V30 29 1 34 32
M  V30 30 1 34 33
M  V30 31 1 35 19
M  V30 32 1 36 25
M  V30 33 1 36 31
M  V30 34 1 37 23
M  V30 35 1 37 24
M  V30 36 1 37 26
M  V30 37 1 38 32
M  V30 38 1 39 19
M  V30 39 2 39 36
M  V30 40 1 40 27
M  V30 41 1 40 29
M  V30 42 1 41 2 CFG=1
M  V30 43 1 41 13
M  V30 44 1 41 18
M  V30 45 1 41 24
M  V30 46 1 42 1
M  V30 47 1 43 1
M  V30 48 1 2 44 CFG=1
M  V30 49 1 4 45 CFG=3
M  V30 50 1 46 5
M  V30 51 1 6 47 CFG=1
M  V30 52 1 7 48 CFG=1
M  V30 53 1 9 49 CFG=1
M  V30 54 1 50 10
M  V30 55 1 51 10
M  V30 56 1 52 10
M  V30 57 1 13 53 CFG=3
M  V30 58 1 16 54 CFG=1
M  V30 59 1 55 17
M  V30 60 1 56 20
M  V30 61 1 57 20
M  V30 62 1 58 21
M  V30 63 1 59 22
M  V30 64 1 60 23
M  V30 65 1 24 61 CFG=1
M  V30 66 1 62 26
M  V30 67 1 63 26
M  V30 68 1 64 29
M  V30 69 1 65 29
M  V30 70 1 31 66 CFG=1
M  V30 71 1 67 34
M  V30 72 1 68 34
M  V30 73 1 69 35
M  V30 74 1 70 35
M  V30 75 1 71 35
M  V30 76 1 37 72 CFG=1
M  V30 77 1 73 38
M  V30 78 1 74 38
M  V30 79 1 75 38
M  V30 80 1 76 40
M  V30 81 1 77 40
M  V30 82 1 78 30
M  V30 83 1 79 17
M  V30 84 1 18 80 CFG=3
M  V30 END BOND
M  V30 END CTAB
M  END
>  <i_epik_Tot_Q>  (1) 
0

>  <i_epik_Tot_abs_Q>  (1) 
6

>  <i_i_glide_confnum>  (1) 
2876

>  <i_i_glide_lignum>  (1) 
168

>  <i_i_glide_posenum>  (1) 
99

>  <i_i_glide_rotatable_bonds>  (1) 
15

>  <i_lp_mmshare_version>  (1) 
72125

>  <i_m_source_file_index>  (1) 
91

>  <i_f3d_flags>  (1) 
0

>  <num_sample>  (1) 
100

>  <b_lp_Chiralities_Consistent>  (1) 
1

>  <r_epik_Charging_Adjusted_Penalty>  (1) 
0.35079833336250127

>  <r_epik_Ionization_Penalty>  (1) 
1.4702178244609605

>  <r_epik_Ionization_Penalty_Charging>  (1) 
0.099885809697688246

>  <r_epik_Ionization_Penalty_Neutral>  (1) 
1.3703320147632723

>  <r_epik_State_Penalty>  (1) 
0.25091252366481304

>  <r_glide_ring_energy>  (1) 
0

>  <r_i_docking_score>  (1) 
-5.5632187829468274

>  <r_i_glide_ecoul>  (1) 
-8.1078950810575563

>  <r_i_glide_eff_state_penalty>  (1) 
0.25091252366481304

>  <r_i_glide_einternal>  (1) 
10.495272249307941

>  <r_i_glide_emodel>  (1) 
-49.217691368696613

>  <r_i_glide_emodel_strain>  (1) 
0.6123988635696378

>  <r_i_glide_energy>  (1) 
-41.1987728137292

>  <r_i_glide_erotb>  (1) 
0.57888693115673628

>  <r_i_glide_esite>  (1) 
-0.14172568206366595

>  <r_i_glide_evdw>  (1) 
-33.090877732671643

>  <r_i_glide_gscore>  (1) 
-5.8141313066116407

>  <r_i_glide_gscore_strain>  (1) 
0

>  <r_i_glide_hbond>  (1) 
-0.16

>  <r_i_glide_ligand_efficiency>  (1) 
-0.1356882629987031

>  <r_i_glide_ligand_efficiency_ln>  (1) 
-1.1802553783454903

>  <r_i_glide_ligand_efficiency_sa>  (1) 
-0.46788260778971424

>  <r_i_glide_lipo>  (1) 
-1.8534800918763101

>  <r_i_glide_metal>  (1) 
-0

>  <r_i_glide_rewards>  (1) 
-1.3670843150361858

>  <r_lp_Energy>  (1) 
72.675405999999995

>  <r_lp_tautomer_probability>  (1) 
1

>  <s_epik_Chemistry_Notes>  (1) 
This compound has an imine and may undergo hydrolysis. This compound contains an acetal/aminal-like group ( X-CH(R)-Y where X, Y are N, S, or O) that may be acid/base labile, releasing an aldehyde.

>  <s_epik_cmdline>  (1) 
J2VwaWtfcHl0aG9uJywgJy1waHQnLCAnMS4wJywgJy1waCcsICc3LjQnLCAnLXRuJywgJzgnLCAnLW1hJywgJzUwMCcsICctaW1hZScsICc8aW5maWxlLm1hZT4nLCAnLW9tYWUnLCAnPG91dGZpbGUubWFlPic=

>  <s_epik_input>  (1) 
W0NIM11PW0NIMl1PW0NASF0xW0NIMl1bQ0gyXW4oYzEyKVtjSF1jKG4yKVtDQEBIXTNbQ0gyXVtDQEBIXShbT0hdKU4oW0NAQF0zNDUpW0NASF0oW0NIMl1bQ0BIXShbT0hdKVtDQEBIXTVbQ0BIXTRbT0hdKVtDQEBIXShbQ0gyXVtPSF0pW05IXVtDQEBIXShbT0hdKVtDQEhdKFtDSDNdKUMoXEMoPU8pW09IXSk9TlxDKD1PKVtDSDNd

>  <s_glide_docking_method>  (1) 
confgen

>  <s_i_glide_gridfile>  (1) 
gpcr_drd2_6luq_protein_autoprepared_prepared

>  <s_lp_Force_Field>  (1) 
S-OPLS

>  <s_lp_Variant>  (1) 
DiffSBDD_90-3

>  <s_m_source_file>  (1) 
generated_generic_title2_ligand_DiffSBDD_2026-06-23_prepared.sdf

>  <GenAI_Model>  (1) 
DiffSBDD

>  <Protein>  (1) 
generic_title2

$$$$
DiffSBDD_78
     RDKit          3D

  0  0  0  0  0  0  0  0  0  0999 V3000
M  V30 BEGIN CTAB
M  V30 COUNTS 81 85 0 0 1
M  V30 BEGIN ATOM
M  V30 1 C 10.214772 8.227786 -7.472383 0 CFG=2
M  V30 2 C 11.689571 8.236518 -7.935529 0
M  V30 3 C 6.814070 3.350009 -12.615245 0 CFG=1
M  V30 4 C 6.632129 5.102283 -14.770395 0 CFG=2
M  V30 5 C 10.142699 7.959106 -5.974578 0
M  V30 6 N 7.249388 5.877151 -17.075923 0 CHG=1
M  V30 7 C 7.732658 4.013357 -14.779337 0 CFG=1
M  V30 8 C 8.642353 5.156532 -12.654591 0 CFG=1
M  V30 9 N 9.375410 7.156070 -8.080234 0 CFG=2 CHG=1
M  V30 10 C 9.332716 6.017970 -7.131269 0
M  V30 11 N 9.173457 6.558057 -12.640667 0 CFG=2 CHG=1
M  V30 12 C 6.586493 5.190210 -10.961140 0
M  V30 13 C 6.927452 6.292730 -15.687367 0
M  V30 14 C 6.689605 5.415743 -19.370270 0
M  V30 15 O 6.432568 5.578738 -13.418723 0
M  V30 16 C 10.659689 6.581574 -12.773998 0
M  V30 17 C 5.666693 5.540780 -20.516548 0 CFG=1
M  V30 18 C 7.839128 2.235278 -12.785007 0
M  V30 19 C 7.121982 4.853335 -12.376406 0 CFG=2
M  V30 20 F 4.672746 4.676832 -20.304399 0
M  V30 21 C 10.153087 6.438689 -5.903363 0
M  V30 22 C 5.114681 5.589087 -10.991471 0
M  V30 23 O 5.619896 7.189179 -18.165254 0
M  V30 24 C 8.953537 4.637723 -14.085930 0
M  V30 25 C 5.069089 6.962497 -20.517558 0 CFG=1
M  V30 26 C 9.457180 7.936286 -10.476038 0
M  V30 27 C 6.012483 5.861411 -18.055413 0 CFG=2
M  V30 28 C 9.669484 6.771806 -9.482919 0
M  V30 29 C 8.637218 7.627006 -11.753208 0
M  V30 30 C 6.280477 5.162010 -21.874100 0
M  V30 31 C 4.576795 7.359436 -19.111818 0
M  V30 32 C 7.182476 2.862631 -13.985095 0 CFG=1
M  V30 33 F 5.983018 7.851186 -20.911341 0
M  V30 34 H 9.757953 9.189363 -7.697042 0
M  V30 35 H 12.277355 8.936766 -7.342452 0
M  V30 36 H 12.154588 7.256154 -7.825931 0
M  V30 37 H 11.795917 8.546974 -8.972533 0
M  V30 38 H 5.827095 3.038658 -12.281575 0
M  V30 39 H 5.700527 4.657837 -15.093885 0
M  V30 40 H 9.195636 8.335499 -5.594652 0
M  V30 41 H 10.943475 8.429153 -5.401521 0
M  V30 42 H 7.922145 6.535172 -17.444422 0
M  V30 43 H 7.981525 3.658175 -15.780039 0
M  V30 44 H 9.220199 4.596219 -11.918130 0
M  V30 45 H 8.291341 5.834466 -6.859191 0
M  V30 46 H 9.729110 5.105484 -7.579670 0
M  V30 47 H 7.116593 5.971014 -10.445460 0
M  V30 48 H 6.717383 4.326166 -10.307836 0
M  V30 49 H 6.097382 7.000254 -15.677948 0
M  V30 50 H 7.774997 6.824164 -15.268987 0
M  V30 51 H 7.555482 6.048630 -19.574076 0
M  V30 52 H 7.040567 4.387487 -19.274179 0
M  V30 53 H 11.142778 6.019932 -11.984945 0
M  V30 54 H 11.015724 6.155339 -13.708886 0
M  V30 55 H 11.046365 7.590223 -12.761695 0
M  V30 56 H 7.521910 1.225448 -12.529004 0
M  V30 57 H 8.888383 2.432512 -12.582138 0
M  V30 58 H 9.762168 6.054510 -4.961840 0
M  V30 59 H 11.176749 6.074084 -5.993835 0
M  V30 60 H 4.677299 5.636061 -9.995594 0
M  V30 61 H 4.576142 4.857782 -11.584971 0
M  V30 62 H 4.979342 6.566728 -11.455441 0
M  V30 63 H 9.793590 3.990238 -13.984451 0
M  V30 64 H 9.325362 5.406506 -14.759974 0
M  V30 65 H 4.252692 7.033180 -21.237845 0
M  V30 66 H 10.426780 8.346136 -10.750797 0
M  V30 67 H 8.975444 8.773971 -9.974417 0
M  V30 68 H 5.215369 5.198936 -17.716594 0
M  V30 69 H 9.045555 5.921827 -9.737333 0
M  V30 70 H 10.685927 6.391576 -9.560639 0
M  V30 71 H 8.706879 8.533193 -12.356646 0
M  V30 72 H 7.568040 7.563265 -11.588188 0
M  V30 73 H 7.119206 5.811754 -22.127229 0
M  V30 74 H 6.647915 4.135076 -21.867390 0
M  V30 75 H 5.544330 5.243133 -22.675699 0
M  V30 76 H 3.746689 6.738569 -18.784718 0
M  V30 77 H 4.231505 8.391759 -19.106844 0
M  V30 78 H 6.438106 2.260786 -14.502190 0
M  V30 79 H 8.420765 7.511935 -8.110210 0
M  V30 80 H 8.838747 6.896636 -13.530539 0
M  V30 81 H 7.686981 4.966240 -17.059023 0
M  V30 END ATOM
M  V30 BEGIN BOND
M  V30 1 1 2 1
M  V30 2 1 5 1
M  V30 3 1 7 4
M  V30 4 1 9 1
M  V30 5 1 10 9
M  V30 6 1 11 8
M  V30 7 1 13 4
M  V30 8 1 13 6
M  V30 9 1 15 4
M  V30 10 1 16 11
M  V30 11 1 17 14
M  V30 12 1 18 3
M  V30 13 1 19 3
M  V30 14 1 19 8
M  V30 15 1 19 12 CFG=1
M  V30 16 1 19 15
M  V30 17 1 17 20 CFG=1
M  V30 18 1 21 5
M  V30 19 1 21 10
M  V30 20 1 22 12
M  V30 21 1 24 7
M  V30 22 1 24 8
M  V30 23 1 25 17
M  V30 24 1 27 6
M  V30 25 1 27 14
M  V30 26 1 27 23
M  V30 27 1 28 9
M  V30 28 1 28 26
M  V30 29 1 29 11
M  V30 30 1 29 26
M  V30 31 1 30 17
M  V30 32 1 31 23
M  V30 33 1 31 25
M  V30 34 1 32 3
M  V30 35 1 32 7
M  V30 36 1 32 18
M  V30 37 1 33 25
M  V30 38 1 1 34 CFG=1
M  V30 39 1 35 2
M  V30 40 1 36 2
M  V30 41 1 37 2
M  V30 42 1 3 38 CFG=1
M  V30 43 1 4 39 CFG=3
M  V30 44 1 40 5
M  V30 45 1 41 5
M  V30 46 1 42 6
M  V30 47 1 7 43 CFG=3
M  V30 48 1 8 44 CFG=1
M  V30 49 1 45 10
M  V30 50 1 46 10
M  V30 51 1 47 12
M  V30 52 1 48 12
M  V30 53 1 49 13
M  V30 54 1 50 13
M  V30 55 1 51 14
M  V30 56 1 52 14
M  V30 57 1 53 16
M  V30 58 1 54 16
M  V30 59 1 55 16
M  V30 60 1 56 18
M  V30 61 1 57 18
M  V30 62 1 58 21
M  V30 63 1 59 21
M  V30 64 1 60 22
M  V30 65 1 61 22
M  V30 66 1 62 22
M  V30 67 1 63 24
M  V30 68 1 64 24
M  V30 69 1 25 65 CFG=3
M  V30 70 1 66 26
M  V30 71 1 67 26
M  V30 72 1 27 68 CFG=1
M  V30 73 1 69 28
M  V30 74 1 70 28
M  V30 75 1 71 29
M  V30 76 1 72 29
M  V30 77 1 73 30
M  V30 78 1 74 30
M  V30 79 1 75 30
M  V30 80 1 76 31
M  V30 81 1 77 31
M  V30 82 1 32 78 CFG=3
M  V30 83 1 9 79 CFG=3
M  V30 84 1 11 80 CFG=3
M  V30 85 1 81 6
M  V30 END BOND
M  V30 END CTAB
M  END
>  <i_epik_Tot_Q>  (1) 
3

>  <i_epik_Tot_abs_Q>  (1) 
3

>  <i_i_glide_confnum>  (1) 
933

>  <i_i_glide_lignum>  (1) 
133

>  <i_i_glide_posenum>  (1) 
141

>  <i_i_glide_rotatable_bonds>  (1) 
9

>  <i_lp_mmshare_version>  (1) 
72125

>  <i_m_source_file_index>  (1) 
79

>  <i_f3d_flags>  (1) 
0

>  <num_sample>  (1) 
100

>  <b_lp_Chiralities_Consistent>  (1) 
1

>  <r_epik_Charging_Adjusted_Penalty>  (1) 
1.7942086838225126

>  <r_epik_Ionization_Penalty>  (1) 
0.94562311220168549

>  <r_epik_Ionization_Penalty_Charging>  (1) 
0.94562311220168382

>  <r_epik_Ionization_Penalty_Neutral>  (1) 
1.710257484888175e-15

>  <r_epik_State_Penalty>  (1) 
0.84858557162082893

>  <r_glide_ring_energy>  (1) 
0

>  <r_i_docking_score>  (1) 
-5.5594095200878186

>  <r_i_glide_ecoul>  (1) 
-6.0996224156019867

>  <r_i_glide_eff_state_penalty>  (1) 
0.84858557162082893

>  <r_i_glide_einternal>  (1) 
20.008649078816646

>  <r_i_glide_emodel>  (1) 
-38.525049764892451

>  <r_i_glide_emodel_strain>  (1) 
0.81983530770270363

>  <r_i_glide_energy>  (1) 
-33.737593475999482

>  <r_i_glide_erotb>  (1) 
0.50682868049007723

>  <r_i_glide_esite>  (1) 
-0.10000000000000001

>  <r_i_glide_evdw>  (1) 
-27.637971060397497

>  <r_i_glide_gscore>  (1) 
-6.4079950917086475

>  <r_i_glide_gscore_strain>  (1) 
0

>  <r_i_glide_hbond>  (1) 
-0.2287523007960994

>  <r_i_glide_ligand_efficiency>  (1) 
-0.16846695515417631

>  <r_i_glide_ligand_efficiency_ln>  (1) 
-1.2363838921855803

>  <r_i_glide_ligand_efficiency_sa>  (1) 
-0.54036354212688797

>  <r_i_glide_lipo>  (1) 
-2.0790253450545868

>  <r_i_glide_metal>  (1) 
-0

>  <r_i_glide_rewards>  (1) 
-2.2102042109878663

>  <r_lp_Energy>  (1) 
78.433422999999991

>  <s_epik_Chemistry_Notes>  (1) 
This compound contains an acetal/aminal-like group ( X-CH(R)-Y where X, Y are N, S, or O) that may be acid/base labile, releasing an aldehyde.

>  <s_epik_cmdline>  (1) 
J2VwaWtfcHl0aG9uJywgJy1waHQnLCAnMS4wJywgJy1waCcsICc3LjQnLCAnLXRuJywgJzgnLCAnLW1hJywgJzUwMCcsICctaW1hZScsICc8aW5maWxlLm1hZT4nLCAnLW9tYWUnLCAnPG91dGZpbGUubWFlPic=

>  <s_epik_input>  (1) 
W0NIM11bQ0BASF0xW0NIMl1bQ0gyXVtDSDJdTjFbQ0gyXVtDSDJdW0NIMl1OKFtDSDNdKVtDQEBIXTJbQ0gyXVtDQEBIXShbQ0BASF0oW0NIMl0zKVtDQEBIXTNbQ0BAXTI0W0NIMl1bQ0gzXSlbQ0BASF0oTzQpW0NIMl1bTkhdW0NASF0oW0NIMl1bQ0BdNShGKVtDSDNdKU9bQ0gyXVtDQEhdNUY=

>  <s_glide_docking_method>  (1) 
confgen

>  <s_i_glide_gridfile>  (1) 
gpcr_drd2_6luq_protein_autoprepared_prepared

>  <s_lp_Force_Field>  (1) 
S-OPLS

>  <s_lp_Variant>  (1) 
DiffSBDD_78-5

>  <s_m_source_file>  (1) 
generated_generic_title2_ligand_DiffSBDD_2026-06-23_prepared.sdf

>  <GenAI_Model>  (1) 
DiffSBDD

>  <Protein>  (1) 
generic_title2

$$$$
DiffSBDD_8
     RDKit          3D

  0  0  0  0  0  0  0  0  0  0999 V3000
M  V30 BEGIN CTAB
M  V30 COUNTS 62 64 0 0 1
M  V30 BEGIN ATOM
M  V30 1 C 9.711996 6.795931 -9.806810 0
M  V30 2 O 11.775329 9.403800 -6.752186 0
M  V30 3 C 7.673231 1.101333 -14.566392 0
M  V30 4 N 12.301448 8.310126 -8.624628 0
M  V30 5 C 6.749561 5.675065 -14.783281 0 CFG=2
M  V30 6 C 7.910775 3.513492 -13.104555 0
M  V30 7 N 9.130034 8.390080 -7.047979 0 CHG=1
M  V30 8 C 5.569668 5.725422 -18.344453 0
M  V30 9 C 8.030486 5.799637 -17.697230 0
M  V30 10 O 6.575406 7.539780 -16.130402 0
M  V30 11 C 6.885371 2.204008 -14.905486 0
M  V30 12 C 5.657026 4.731520 -19.511061 0
M  V30 13 O 6.170986 4.454896 -14.513346 0
M  V30 14 S 8.649128 4.414981 -10.598216 0
M  V30 15 C 6.537658 6.519997 -13.513676 0
M  V30 16 C 8.051349 4.831196 -12.282558 0 CFG=2
M  V30 17 N 8.575421 5.882372 -9.703892 0 CFG=1 CHG=1
M  V30 18 F 7.562292 -0.048592 -15.266543 0
M  V30 19 C 5.421493 8.355448 -16.176652 0
M  V30 20 C 8.843284 5.620038 -8.287671 0
M  V30 21 C 6.762416 5.683892 -12.240063 0
M  V30 22 C 10.097175 6.482096 -8.357918 0 CFG=2
M  V30 23 C 6.597786 5.472257 -17.227926 0 CFG=1
M  V30 24 N 6.162587 6.173699 -16.005849 0
M  V30 25 C 11.536789 8.499249 -7.547072 0
M  V30 26 C 8.575396 1.189317 -13.505898 0
M  V30 27 C 8.706668 2.390230 -12.785025 0
M  V30 28 C 6.985465 3.409997 -14.178558 0
M  V30 29 C 10.335999 7.574111 -7.286667 0 CFG=1
M  V30 30 H 10.453575 6.507340 -10.552249 0
M  V30 31 H 9.375540 7.822454 -9.958908 0
M  V30 32 H 13.083683 8.928829 -8.800339 0
M  V30 33 H 12.099166 7.556980 -9.263415 0
M  V30 34 H 7.819793 5.542549 -14.943404 0
M  V30 35 H 9.336481 9.057565 -6.318937 0
M  V30 36 H 8.878028 8.889375 -7.889331 0
M  V30 37 H 4.575409 5.655623 -17.912888 0
M  V30 38 H 5.667003 6.743439 -18.723147 0
M  V30 39 H 8.354882 5.089985 -18.457816 0
M  V30 40 H 8.082692 6.789492 -18.151454 0
M  V30 41 H 8.761445 5.746021 -16.892474 0
M  V30 42 H 6.187137 2.125362 -15.724614 0
M  V30 43 H 4.869203 4.923611 -20.239901 0
M  V30 44 H 6.611093 4.804473 -20.033148 0
M  V30 45 H 5.541418 3.703951 -19.165066 0
M  V30 46 H 7.210592 7.377337 -13.549509 0
M  V30 47 H 5.517220 6.903630 -13.508414 0
M  V30 48 H 8.847586 5.420713 -12.739333 0
M  V30 49 H 5.751768 9.372377 -16.385029 0
M  V30 50 H 4.734042 8.054702 -16.967421 0
M  V30 51 H 4.884035 8.360043 -15.228880 0
M  V30 52 H 8.056055 5.990231 -7.638627 0
M  V30 53 H 9.060606 4.579437 -8.039595 0
M  V30 54 H 6.783409 6.397799 -11.420668 0
M  V30 55 H 5.902043 5.045079 -12.033332 0
M  V30 56 H 10.951730 5.804490 -8.383018 0
M  V30 57 H 6.575408 4.406835 -17.000002 0
M  V30 58 H 9.185229 0.336335 -13.245137 0
M  V30 59 H 9.422398 2.439296 -11.985013 0
M  V30 60 H 10.544902 7.064625 -6.344454 0
M  V30 61 H 7.721342 6.446003 -9.784203 0
M  V30 62 H 8.345458 7.811536 -6.769026 0
M  V30 END ATOM
M  V30 BEGIN BOND
M  V30 1 2 11 3
M  V30 2 1 12 8
M  V30 3 1 13 5
M  V30 4 1 15 5
M  V30 5 1 16 6
M  V30 6 1 16 14
M  V30 7 1 17 1
M  V30 8 1 17 14
M  V30 9 1 18 3
M  V30 10 1 19 10
M  V30 11 1 20 17
M  V30 12 1 21 15
M  V30 13 1 21 16
M  V30 14 1 22 1
M  V30 15 1 22 20
M  V30 16 1 23 8
M  V30 17 1 23 9
M  V30 18 1 24 5
M  V30 19 1 24 10
M  V30 20 1 24 23
M  V30 21 2 25 2
M  V30 22 1 25 4
M  V30 23 1 26 3
M  V30 24 1 27 6
M  V30 25 2 27 26
M  V30 26 2 28 6
M  V30 27 1 28 11
M  V30 28 1 28 13
M  V30 29 1 29 7
M  V30 30 1 29 22
M  V30 31 1 29 25
M  V30 32 1 30 1
M  V30 33 1 31 1
M  V30 34 1 32 4
M  V30 35 1 33 4
M  V30 36 1 5 34 CFG=3
M  V30 37 1 35 7
M  V30 38 1 36 7
M  V30 39 1 37 8
M  V30 40 1 38 8
M  V30 41 1 39 9
M  V30 42 1 40 9
M  V30 43 1 41 9
M  V30 44 1 42 11
M  V30 45 1 43 12
M  V30 46 1 44 12
M  V30 47 1 45 12
M  V30 48 1 46 15
M  V30 49 1 47 15
M  V30 50 1 16 48 CFG=3
M  V30 51 1 49 19
M  V30 52 1 50 19
M  V30 53 1 51 19
M  V30 54 1 52 20
M  V30 55 1 53 20
M  V30 56 1 54 21
M  V30 57 1 55 21
M  V30 58 1 22 56 CFG=3
M  V30 59 1 23 57 CFG=1
M  V30 60 1 58 26
M  V30 61 1 59 27
M  V30 62 1 29 60 CFG=1
M  V30 63 1 17 61 CFG=1
M  V30 64 1 62 7
M  V30 END BOND
M  V30 END CTAB
M  END
>  <i_epik_Tot_Q>  (1) 
2

>  <i_epik_Tot_abs_Q>  (1) 
2

>  <i_i_glide_confnum>  (1) 
346

>  <i_i_glide_lignum>  (1) 
13

>  <i_i_glide_posenum>  (1) 
68

>  <i_i_glide_rotatable_bonds>  (1) 
8

>  <i_lp_mmshare_version>  (1) 
72125

>  <i_m_source_file_index>  (1) 
9

>  <i_f3d_flags>  (1) 
0

>  <num_sample>  (1) 
100

>  <b_lp_Chiralities_Consistent>  (1) 
1

>  <r_epik_Charging_Adjusted_Penalty>  (1) 
1.8967099088143093

>  <r_epik_Ionization_Penalty>  (1) 
0.97230814562840162

>  <r_epik_Ionization_Penalty_Charging>  (1) 
0.97206898566559774

>  <r_epik_Ionization_Penalty_Neutral>  (1) 
0.00023915996280393024

>  <r_epik_State_Penalty>  (1) 
0.9246409231487116

>  <r_glide_ring_energy>  (1) 
0.47634900413209158

>  <r_i_docking_score>  (1) 
-5.5587170859243358

>  <r_i_glide_ecoul>  (1) 
-10.639638778288065

>  <r_i_glide_eff_state_penalty>  (1) 
0.9246409231487116

>  <r_i_glide_einternal>  (1) 
7.7362610269805145

>  <r_i_glide_emodel>  (1) 
-50.498402370329288

>  <r_i_glide_emodel_strain>  (1) 
3.7834034064906064

>  <r_i_glide_energy>  (1) 
-35.882753822822799

>  <r_i_glide_erotb>  (1) 
0.54076123851304858

>  <r_i_glide_esite>  (1) 
-0.19145919671601852

>  <r_i_glide_evdw>  (1) 
-25.243115044534736

>  <r_i_glide_gscore>  (1) 
-6.4833580090730472

>  <r_i_glide_gscore_strain>  (1) 
0

>  <r_i_glide_hbond>  (1) 
-0.26992642175885395

>  <r_i_glide_ligand_efficiency>  (1) 
-0.19167989951463227

>  <r_i_glide_ligand_efficiency_ln>  (1) 
-1.2728052557734681

>  <r_i_glide_ligand_efficiency_sa>  (1) 
-0.58890138042457729

>  <r_i_glide_lipo>  (1) 
-1.5998115228889731

>  <r_i_glide_metal>  (1) 
-0

>  <r_i_glide_rewards>  (1) 
-2.1048205372523041

>  <r_lp_Energy>  (1) 
49.910619999999994

>  <r_lp_tautomer_probability>  (1) 
1

>  <s_epik_Chemistry_Notes>  (1) 
This compound contains an acetal/aminal-like group ( X-CH(R)-Y where X, Y are N, S, or O) that may be acid/base labile, releasing an aldehyde. This compound has a N-S or N-O group and may undergo hydrolysis at high or low pH.

>  <s_epik_cmdline>  (1) 
J2VwaWtfcHl0aG9uJywgJy1waHQnLCAnMS4wJywgJy1waCcsICc3LjQnLCAnLXRuJywgJzgnLCAnLW1hJywgJzUwMCcsICctaW1hZScsICc8aW5maWxlLm1hZT4nLCAnLW9tYWUnLCAnPG91dGZpbGUubWFlPic=

>  <s_epik_input>  (1) 
Tz1DKFtOSDJdKVtDQEBIXShbTkgyXSlbQ0hdKFtDSDJdMSlbQ0gyXU4xU1tDQEBIXTJbQ0gyXVtDSDJdW0NASF0oTihPW0NIM10pW0NASF0oW0NIM10pW0NIMl1bQ0gzXSlPYyhjMjMpW2NIXWMoRilbY0hdW2NIXTM=

>  <s_glide_docking_method>  (1) 
confgen

>  <s_i_glide_gridfile>  (1) 
gpcr_drd2_6luq_protein_autoprepared_prepared

>  <s_lp_Force_Field>  (1) 
S-OPLS

>  <s_lp_Variant>  (1) 
DiffSBDD_8-3

>  <s_m_source_file>  (1) 
generated_generic_title2_ligand_DiffSBDD_2026-06-23_prepared.sdf

>  <GenAI_Model>  (1) 
DiffSBDD

>  <Protein>  (1) 
generic_title2

$$$$
DiffSBDD_44
     RDKit          3D

  0  0  0  0  0  0  0  0  0  0999 V3000
M  V30 BEGIN CTAB
M  V30 COUNTS 46 48 0 0 1
M  V30 BEGIN ATOM
M  V30 1 C 6.277975 4.430809 -11.870202 0 CFG=2
M  V30 2 C 8.726901 5.590543 -7.701430 0
M  V30 3 C 10.064531 7.118277 -6.096868 0
M  V30 4 C 6.250409 4.267501 -13.326891 0 CFG=1
M  V30 5 O 10.547697 6.503889 -8.972008 0
M  V30 6 C 11.972420 9.004925 -5.190204 0
M  V30 7 C 10.825825 6.873118 -4.930080 0
M  V30 8 C 8.724207 5.197162 -12.748150 0
M  V30 9 O 9.495358 8.656598 -7.886163 0
M  V30 10 O 6.703210 0.505097 -13.979588 0
M  V30 11 C 9.011456 6.125021 -6.476187 0
M  V30 12 C 10.268075 8.336769 -6.807377 0
M  V30 13 O 7.685042 2.954280 -14.727914 0
M  V30 14 C 6.144410 1.659876 -13.383945 0
M  V30 15 C 8.994050 5.182681 -10.210564 0
M  V30 16 N 7.176842 7.762382 -11.985018 0 CHG=1
M  V30 17 C 9.493249 5.770679 -11.535102 0
M  V30 18 O 5.047479 4.110604 -12.550112 0
M  V30 19 C 7.183309 5.332137 -12.714611 0 CFG=2
M  V30 20 C 6.783545 2.969575 -13.888360 0
M  V30 21 C 11.775410 7.811029 -4.480113 0
M  V30 22 C 9.511775 5.842361 -8.934361 0
M  V30 23 C 6.733326 6.769533 -12.989362 0
M  V30 24 C 11.231362 9.261070 -6.353727 0
M  V30 25 H 6.706497 3.591244 -11.313480 0
M  V30 26 H 7.889669 4.910014 -7.789371 0
M  V30 27 H 12.694373 9.724900 -4.840782 0
M  V30 28 H 10.670200 5.960403 -4.372692 0
M  V30 29 H 9.098218 5.653071 -13.667583 0
M  V30 30 H 8.991492 4.142657 -12.825086 0
M  V30 31 H 8.832644 8.013585 -8.100841 0
M  V30 32 H 6.234663 -0.253550 -13.657026 0
M  V30 33 H 8.397521 5.798306 -5.656445 0
M  V30 34 H 5.070175 1.687388 -13.578693 0
M  V30 35 H 6.262465 1.586797 -12.303691 0
M  V30 36 H 9.238876 4.117828 -10.172207 0
M  V30 37 H 7.909644 5.261827 -10.147590 0
M  V30 38 H 6.816729 8.669970 -12.236617 0
M  V30 39 H 8.184721 7.797142 -11.974311 0
M  V30 40 H 10.552768 5.535393 -11.644986 0
M  V30 41 H 9.461535 6.856219 -11.512579 0
M  V30 42 H 12.348252 7.613245 -3.587081 0
M  V30 43 H 7.120434 7.068212 -13.966551 0
M  V30 44 H 5.642140 6.803582 -13.064851 0
M  V30 45 H 11.381302 10.183186 -6.884929 0
M  V30 46 H 6.887490 7.577766 -11.016889 0
M  V30 END ATOM
M  V30 BEGIN BOND
M  V30 1 1 4 1
M  V30 2 2 7 3
M  V30 3 2 11 2
M  V30 4 1 11 3
M  V30 5 1 12 3
M  V30 6 1 12 9
M  V30 7 1 14 10
M  V30 8 1 17 8
M  V30 9 1 17 15
M  V30 10 1 18 1
M  V30 11 1 18 4
M  V30 12 1 19 1
M  V30 13 1 19 4
M  V30 14 1 19 8 CFG=1
M  V30 15 1 4 20 CFG=1
M  V30 16 2 20 13
M  V30 17 1 20 14
M  V30 18 2 21 6
M  V30 19 1 21 7
M  V30 20 1 22 2
M  V30 21 2 22 5
M  V30 22 1 22 15
M  V30 23 1 23 16
M  V30 24 1 23 19
M  V30 25 1 24 6
M  V30 26 2 24 12
M  V30 27 1 1 25 CFG=1
M  V30 28 1 26 2
M  V30 29 1 27 6
M  V30 30 1 28 7
M  V30 31 1 29 8
M  V30 32 1 30 8
M  V30 33 1 31 9
M  V30 34 1 32 10
M  V30 35 1 33 11
M  V30 36 1 34 14
M  V30 37 1 35 14
M  V30 38 1 36 15
M  V30 39 1 37 15
M  V30 40 1 38 16
M  V30 41 1 39 16
M  V30 42 1 40 17
M  V30 43 1 41 17
M  V30 44 1 42 21
M  V30 45 1 43 23
M  V30 46 1 44 23
M  V30 47 1 45 24
M  V30 48 1 46 16
M  V30 END BOND
M  V30 END CTAB
M  END
>  <i_epik_Tot_Q>  (1) 
1

>  <i_epik_Tot_abs_Q>  (1) 
1

>  <i_i_glide_confnum>  (1) 
674

>  <i_i_glide_lignum>  (1) 
72

>  <i_i_glide_posenum>  (1) 
82

>  <i_i_glide_rotatable_bonds>  (1) 
11

>  <i_lp_mmshare_version>  (1) 
72125

>  <i_m_source_file_index>  (1) 
45

>  <i_f3d_flags>  (1) 
0

>  <num_sample>  (1) 
100

>  <b_lp_Chiralities_Consistent>  (1) 
1

>  <r_epik_Charging_Adjusted_Penalty>  (1) 
0.0039975134785533318

>  <r_epik_Ionization_Penalty>  (1) 
0.0083805373542956835

>  <r_epik_Ionization_Penalty_Charging>  (1) 
0.0039975134785533318

>  <r_epik_Ionization_Penalty_Neutral>  (1) 
0.0043830238757423508

>  <r_epik_State_Penalty>  (1) 
-0

>  <r_glide_ring_energy>  (1) 
0

>  <r_i_docking_score>  (1) 
-5.5490317618073508

>  <r_i_glide_ecoul>  (1) 
-10.53332134822417

>  <r_i_glide_eff_state_penalty>  (1) 
-0

>  <r_i_glide_einternal>  (1) 
10.867642134822141

>  <r_i_glide_emodel>  (1) 
-47.563690442219553

>  <r_i_glide_emodel_strain>  (1) 
0.27830537423857038

>  <r_i_glide_energy>  (1) 
-34.094671723415736

>  <r_i_glide_erotb>  (1) 
1.3638172886518747

>  <r_i_glide_esite>  (1) 
-0.15301483285483053

>  <r_i_glide_evdw>  (1) 
-23.561350375191566

>  <r_i_glide_gscore>  (1) 
-5.5490317618073508

>  <r_i_glide_gscore_strain>  (1) 
0

>  <r_i_glide_hbond>  (1) 
-0.24923433304161549

>  <r_i_glide_ligand_efficiency>  (1) 
-0.23120965674197294

>  <r_i_glide_ligand_efficiency_ln>  (1) 
-1.328137929076235

>  <r_i_glide_ligand_efficiency_sa>  (1) 
-0.6669240561740678

>  <r_i_glide_lipo>  (1) 
-1.9587527856981848

>  <r_i_glide_metal>  (1) 
-0

>  <r_i_glide_rewards>  (1) 
-1.7937813778713911

>  <r_lp_Energy>  (1) 
27.234783

>  <r_lp_tautomer_probability>  (1) 
1

>  <s_epik_cmdline>  (1) 
J2VwaWtfcHl0aG9uJywgJy1waHQnLCAnMS4wJywgJy1waCcsICc3LjQnLCAnLXRuJywgJzgnLCAnLW1hJywgJzUwMCcsICctaW1hZScsICc8aW5maWxlLm1hZT4nLCAnLW9tYWUnLCAnPG91dGZpbGUubWFlPic=

>  <s_epik_input>  (1) 
W09IXVtDSDJdQyg9TylbQ0BdMTJbQ0BIXShPMSlbQ0BAXTIoW0NIMl1bTkgyXSlbQ0gyXVtDSDJdW0NIMl1DKD1PKS9bQ0hdPVtDSF1cYzNbY0hdW2NIXVtjSF1bY0hdYzNbT0hd

>  <s_glide_docking_method>  (1) 
confgen

>  <s_i_glide_gridfile>  (1) 
gpcr_drd2_6luq_protein_autoprepared_prepared

>  <s_lp_Force_Field>  (1) 
S-OPLS

>  <s_lp_Variant>  (1) 
DiffSBDD_44-2

>  <s_m_source_file>  (1) 
generated_generic_title2_ligand_DiffSBDD_2026-06-23_prepared.sdf

>  <GenAI_Model>  (1) 
DiffSBDD

>  <Protein>  (1) 
generic_title2

$$$$
DiffSBDD_10
     RDKit          3D

  0  0  0  0  0  0  0  0  0  0999 V3000
M  V30 BEGIN CTAB
M  V30 COUNTS 55 59 0 0 1
M  V30 BEGIN ATOM
M  V30 1 S 10.047162 6.847749 -11.882529 0
M  V30 2 C 11.495322 8.017318 -9.887633 0
M  V30 3 C 8.580474 4.779565 -12.597501 0 CFG=1
M  V30 4 C 10.767410 7.969366 -6.366105 0
M  V30 5 C 7.908921 2.307361 -13.251025 0
M  V30 6 C 11.375343 7.973266 -4.976746 0
M  V30 7 O 9.055036 7.865592 -12.255367 0
M  V30 8 C 6.452186 2.776335 -13.010339 0
M  V30 9 C 12.290267 9.190153 -3.057763 0
M  V30 10 C 4.975887 4.926949 -13.149091 0
M  V30 11 C 5.375678 6.406330 -12.964961 0
M  V30 12 N 9.425254 5.389669 -11.586118 0 CHG=-1
M  V30 13 C 9.250852 4.474038 -13.903065 0
M  V30 14 C 6.295272 4.259954 -13.373422 0 CFG=1
M  V30 15 O 11.307848 6.789951 -12.638393 0
M  V30 16 C 11.736739 9.191162 -4.354109 0
M  V30 17 N 10.432652 7.197556 -10.254779 0
M  V30 18 C 8.975127 3.350742 -12.901576 0 CFG=1
M  V30 19 C 11.583706 6.761144 -4.277465 0
M  V30 20 C 9.813066 6.852430 -6.761299 0
M  V30 21 C 12.494161 7.984155 -2.375821 0
M  V30 22 O 12.575463 7.990282 -10.455659 0
M  V30 23 O 6.785353 6.416161 -12.891117 0
M  V30 24 C 11.778908 8.514024 -7.380081 0
M  V30 25 C 12.141531 6.770248 -2.981658 0
M  V30 26 C 11.225983 8.973435 -8.748195 0
M  V30 27 C 9.273597 8.231637 -6.495007 0
M  V30 28 C 7.140570 5.124632 -12.456715 0 CFG=2
M  V30 29 H 8.030362 2.044243 -14.302064 0
M  V30 30 H 8.098743 1.392451 -12.688005 0
M  V30 31 H 5.763492 2.158172 -13.584833 0
M  V30 32 H 6.179089 2.637923 -11.964224 0
M  V30 33 H 12.557211 10.119642 -2.584269 0
M  V30 34 H 4.284209 4.790203 -13.976843 0
M  V30 35 H 4.575435 4.511477 -12.224349 0
M  V30 36 H 5.056852 7.036232 -13.795043 0
M  V30 37 H 4.975288 6.819103 -12.039001 0
M  V30 38 H 8.661447 4.497848 -14.813425 0
M  V30 39 H 10.235493 4.884310 -14.036427 0
M  V30 40 H 6.560239 4.410706 -14.419166 0
M  V30 41 H 11.580661 10.127536 -4.870732 0
M  V30 42 H 9.567400 7.204781 -9.714688 0
M  V30 43 H 9.841928 2.945444 -12.385103 0
M  V30 44 H 11.314881 5.822231 -4.736048 0
M  V30 45 H 9.810633 6.515436 -7.793764 0
M  V30 46 H 9.541486 6.088724 -6.038558 0
M  V30 47 H 12.921701 7.991714 -1.383439 0
M  V30 48 H 12.277358 9.377985 -6.941697 0
M  V30 49 H 12.570295 7.775073 -7.508139 0
M  V30 50 H 12.296850 5.839988 -2.454380 0
M  V30 51 H 10.167613 9.190258 -8.764939 0
M  V30 52 H 11.726442 9.902741 -9.025229 0
M  V30 53 H 8.716736 8.387033 -5.585157 0
M  V30 54 H 8.814434 8.702862 -7.357498 0
M  V30 55 H 6.850752 4.987114 -11.410416 0
M  V30 END ATOM
M  V30 BEGIN BOND
M  V30 1 1 6 4
M  V30 2 2 7 1
M  V30 3 1 8 5
M  V30 4 1 11 10
M  V30 5 1 12 1
M  V30 6 1 3 12 CFG=1
M  V30 7 1 13 3
M  V30 8 1 14 8
M  V30 9 1 14 10
M  V30 10 2 15 1
M  V30 11 2 16 6
M  V30 12 1 16 9
M  V30 13 1 17 1
M  V30 14 1 17 2
M  V30 15 1 18 3
M  V30 16 1 18 5
M  V30 17 1 18 13
M  V30 18 1 19 6
M  V30 19 1 20 4
M  V30 20 2 21 9
M  V30 21 2 22 2
M  V30 22 1 23 11
M  V30 23 1 24 4
M  V30 24 2 25 19
M  V30 25 1 25 21
M  V30 26 1 26 2
M  V30 27 1 26 24
M  V30 28 1 27 4
M  V30 29 1 27 20
M  V30 30 1 28 3
M  V30 31 1 28 14
M  V30 32 1 28 23
M  V30 33 1 29 5
M  V30 34 1 30 5
M  V30 35 1 31 8
M  V30 36 1 32 8
M  V30 37 1 33 9
M  V30 38 1 34 10
M  V30 39 1 35 10
M  V30 40 1 36 11
M  V30 41 1 37 11
M  V30 42 1 38 13
M  V30 43 1 39 13
M  V30 44 1 14 40 CFG=3
M  V30 45 1 41 16
M  V30 46 1 42 17
M  V30 47 1 18 43 CFG=1
M  V30 48 1 44 19
M  V30 49 1 45 20
M  V30 50 1 46 20
M  V30 51 1 47 21
M  V30 52 1 48 24
M  V30 53 1 49 24
M  V30 54 1 50 25
M  V30 55 1 51 26
M  V30 56 1 52 26
M  V30 57 1 53 27
M  V30 58 1 54 27
M  V30 59 1 28 55 CFG=1
M  V30 END BOND
M  V30 END CTAB
M  END
>  <i_epik_Tot_Q>  (1) 
-1

>  <i_epik_Tot_abs_Q>  (1) 
1

>  <i_i_glide_confnum>  (1) 
223

>  <i_i_glide_lignum>  (1) 
19

>  <i_i_glide_posenum>  (1) 
46

>  <i_i_glide_rotatable_bonds>  (1) 
8

>  <i_lp_mmshare_version>  (1) 
72125

>  <i_m_source_file_index>  (1) 
11

>  <i_f3d_flags>  (1) 
0

>  <num_sample>  (1) 
100

>  <b_lp_Chiralities_Consistent>  (1) 
1

>  <r_epik_Charging_Adjusted_Penalty>  (1) 
0.69645471960127314

>  <r_epik_Ionization_Penalty>  (1) 
0.13608129319335216

>  <r_epik_Ionization_Penalty_Charging>  (1) 
0.023519382127027082

>  <r_epik_Ionization_Penalty_Neutral>  (1) 
0.11256191106632508

>  <r_epik_State_Penalty>  (1) 
0.67293533747424605

>  <r_glide_ring_energy>  (1) 
0

>  <r_i_docking_score>  (1) 
-5.5481388461663608

>  <r_i_glide_ecoul>  (1) 
-1.0586378334055457

>  <r_i_glide_eff_state_penalty>  (1) 
0.67293533747424605

>  <r_i_glide_einternal>  (1) 
7.9399986535684715

>  <r_i_glide_emodel>  (1) 
-45.123034572406908

>  <r_i_glide_emodel_strain>  (1) 
0.95001281862020903

>  <r_i_glide_energy>  (1) 
-37.017625307806043

>  <r_i_glide_erotb>  (1) 
0.84406116630868921

>  <r_i_glide_esite>  (1) 
-0.074537887045909051

>  <r_i_glide_evdw>  (1) 
-35.958987474400494

>  <r_i_glide_gscore>  (1) 
-6.2210741836406065

>  <r_i_glide_gscore_strain>  (1) 
0

>  <r_i_glide_hbond>  (1) 
0

>  <r_i_glide_ligand_efficiency>  (1) 
-0.19814781593451289

>  <r_i_glide_ligand_efficiency_ln>  (1) 
-1.2806733461301856

>  <r_i_glide_ligand_efficiency_sa>  (1) 
-0.60169347266799056

>  <r_i_glide_lipo>  (1) 
-3.2618613029264369

>  <r_i_glide_metal>  (1) 
-0

>  <r_i_glide_rewards>  (1) 
-1.7719911112460935

>  <r_lp_Energy>  (1) 
21.120514999999997

>  <s_epik_cmdline>  (1) 
J2VwaWtfcHl0aG9uJywgJy1waHQnLCAnMS4wJywgJy1waCcsICc3LjQnLCAnLXRuJywgJzgnLCAnLW1hJywgJzUwMCcsICctaW1hZScsICc8aW5maWxlLm1hZT4nLCAnLW9tYWUnLCAnPG91dGZpbGUubWFlPic=

>  <s_epik_input>  (1) 
W0NIMl0xW0NIMl1PW0NASF0yW0NASF0xW0NIMl1bQ0gyXVtDQEBIXShbQ0gyXTMpW0NAXTIzW05IXVMoPU8pKD1PKVtOSF1DKD1PKVtDSDJdW0NIMl1DNChbQ0gyXVtDSDJdNCljNVtjSF1bY0hdW2NIXVtjSF1bY0hdNQ==

>  <s_glide_docking_method>  (1) 
confgen

>  <s_i_glide_gridfile>  (1) 
gpcr_drd2_6luq_protein_autoprepared_prepared

>  <s_lp_Force_Field>  (1) 
S-OPLS

>  <s_lp_Variant>  (1) 
DiffSBDD_10-2

>  <s_m_source_file>  (1) 
generated_generic_title2_ligand_DiffSBDD_2026-06-23_prepared.sdf

>  <GenAI_Model>  (1) 
DiffSBDD

>  <Protein>  (1) 
generic_title2

$$$$
DiffSBDD_71
     RDKit          3D

  0  0  0  0  0  0  0  0  0  0999 V3000
M  V30 BEGIN CTAB
M  V30 COUNTS 55 57 0 0 1
M  V30 BEGIN ATOM
M  V30 1 C 8.726499 6.536485 -11.394279 0 CFG=2
M  V30 2 O 6.568299 4.417963 -10.384876 0
M  V30 3 C 8.175405 1.331898 -15.677444 0 CFG=1
M  V30 4 C 6.635281 2.541718 -13.350163 0
M  V30 5 C 6.480260 5.477590 -11.310164 0
M  V30 6 C 12.213300 8.790224 -7.160086 0
M  V30 7 C 8.107581 3.864866 -15.082477 0
M  V30 8 N 7.763762 5.599859 -12.027976 0
M  V30 9 C 10.175413 6.790179 -5.822038 0
M  V30 10 O 10.975523 9.954488 -5.513249 0
M  V30 11 O 7.270966 0.372001 -16.162561 0
M  V30 12 C 8.301197 4.332155 -12.543995 0
M  V30 13 C 9.812475 7.052234 -12.363063 0
M  V30 14 C 7.385737 1.199914 -13.434860 0 CFG=2
M  V30 15 C 11.029142 7.601932 -5.193737 0
M  V30 16 C 11.630321 8.244842 -8.231702 0
M  V30 17 C 11.707296 8.782608 -5.768740 0 CFG=1
M  V30 18 C 7.654984 2.749374 -16.042596 0
M  V30 19 O 8.481435 1.207456 -14.319472 0
M  V30 20 O 5.095913 -0.298888 -15.818075 0
M  V30 21 C 9.342092 6.171742 -10.040001 0
M  V30 22 C 7.403170 3.836265 -13.703069 0 CFG=2
M  V30 23 C 6.199364 0.022260 -15.382043 0
M  V30 24 C 9.762312 6.849457 -7.223874 0
M  V30 25 C 10.385107 7.471053 -8.277881 0
M  V30 26 O 9.821230 7.332490 -9.520712 0
M  V30 27 C 6.500036 0.028741 -13.874888 0
M  V30 28 O 9.375334 5.047517 -9.536835 0
M  V30 29 H 8.161164 7.441943 -11.185011 0
M  V30 30 H 6.261167 4.723353 -9.538382 0
M  V30 31 H 9.114496 1.165915 -16.204032 0
M  V30 32 H 6.195527 2.630424 -12.357230 0
M  V30 33 H 5.775125 2.494102 -13.995561 0
M  V30 34 H 5.664720 5.255403 -11.997117 0
M  V30 35 H 6.195382 6.390239 -10.796339 0
M  V30 36 H 13.137061 9.325623 -7.302111 0
M  V30 37 H 7.815610 4.804526 -15.553503 0
M  V30 38 H 9.186927 3.990052 -15.021202 0
M  V30 39 H 9.731122 6.007621 -5.225247 0
M  V30 40 H 10.204466 9.928643 -6.059838 0
M  V30 41 H 9.321320 4.448049 -12.898037 0
M  V30 42 H 8.404318 3.587087 -11.756860 0
M  V30 43 H 10.762453 7.259916 -11.869621 0
M  V30 44 H 10.035840 6.380129 -13.184947 0
M  V30 45 H 9.475294 7.996675 -12.785033 0
M  V30 46 H 7.796266 0.979854 -12.448972 0
M  V30 47 H 11.228959 7.420936 -4.148591 0
M  V30 48 H 12.129591 8.401253 -9.176546 0
M  V30 49 H 12.596358 8.890638 -5.152043 0
M  V30 50 H 6.575298 2.738272 -16.096208 0
M  V30 51 H 7.991014 2.968319 -17.056965 0
M  V30 52 H 6.596464 4.557600 -13.840892 0
M  V30 53 H 8.866058 6.296147 -7.461121 0
M  V30 54 H 5.560890 0.037266 -13.321574 0
M  V30 55 H 6.975213 -0.917536 -13.634002 0
M  V30 END ATOM
M  V30 BEGIN BOND
M  V30 1 1 5 2
M  V30 2 1 8 1
M  V30 3 1 8 5
M  V30 4 1 11 3
M  V30 5 1 12 8
M  V30 6 1 13 1
M  V30 7 1 14 4
M  V30 8 2 15 9
M  V30 9 2 16 6
M  V30 10 1 17 6
M  V30 11 1 17 10
M  V30 12 1 17 15
M  V30 13 1 18 3
M  V30 14 1 18 7
M  V30 15 1 19 3
M  V30 16 1 19 14
M  V30 17 1 21 1
M  V30 18 1 22 4
M  V30 19 1 22 7
M  V30 20 1 22 12
M  V30 21 1 23 11
M  V30 22 2 23 20
M  V30 23 1 24 9
M  V30 24 1 25 16
M  V30 25 2 25 24
M  V30 26 1 26 21
M  V30 27 1 26 25
M  V30 28 1 27 14
M  V30 29 1 27 23
M  V30 30 2 28 21
M  V30 31 1 1 29 CFG=1
M  V30 32 1 30 2
M  V30 33 1 3 31 CFG=3
M  V30 34 1 32 4
M  V30 35 1 33 4
M  V30 36 1 34 5
M  V30 37 1 35 5
M  V30 38 1 36 6
M  V30 39 1 37 7
M  V30 40 1 38 7
M  V30 41 1 39 9
M  V30 42 1 40 10
M  V30 43 1 41 12
M  V30 44 1 42 12
M  V30 45 1 43 13
M  V30 46 1 44 13
M  V30 47 1 45 13
M  V30 48 1 14 46 CFG=1
M  V30 49 1 47 15
M  V30 50 1 48 16
M  V30 51 1 17 49 CFG=1
M  V30 52 1 50 18
M  V30 53 1 51 18
M  V30 54 1 22 52 CFG=3
M  V30 55 1 53 24
M  V30 56 1 54 27
M  V30 57 1 55 27
M  V30 END BOND
M  V30 END CTAB
M  END
>  <i_epik_Tot_Q>  (1) 
0

>  <i_epik_Tot_abs_Q>  (1) 
0

>  <i_i_glide_confnum>  (1) 
519

>  <i_i_glide_lignum>  (1) 
116

>  <i_i_glide_posenum>  (1) 
327

>  <i_i_glide_rotatable_bonds>  (1) 
9

>  <i_lp_mmshare_version>  (1) 
72125

>  <i_m_source_file_index>  (1) 
72

>  <i_f3d_flags>  (1) 
0

>  <num_sample>  (1) 
100

>  <b_lp_Chiralities_Consistent>  (1) 
1

>  <r_epik_Charging_Adjusted_Penalty>  (1) 
0

>  <r_epik_Ionization_Penalty>  (1) 
0.0080147773199130048

>  <r_epik_Ionization_Penalty_Charging>  (1) 
0

>  <r_epik_Ionization_Penalty_Neutral>  (1) 
0.0080147773199130048

>  <r_epik_State_Penalty>  (1) 
-0

>  <r_glide_ring_energy>  (1) 
0.62074138562282444

>  <r_i_docking_score>  (1) 
-5.5428323438023179

>  <r_i_glide_ecoul>  (1) 
-3.5265575465276462

>  <r_i_glide_eff_state_penalty>  (1) 
-0

>  <r_i_glide_einternal>  (1) 
13.47140205649146

>  <r_i_glide_emodel>  (1) 
-40.28498925228299

>  <r_i_glide_emodel_strain>  (1) 
3.1890507696439556

>  <r_i_glide_energy>  (1) 
-38.924747196259425

>  <r_i_glide_erotb>  (1) 
0.75718691864975285

>  <r_i_glide_esite>  (1) 
-0.14837151303283888

>  <r_i_glide_evdw>  (1) 
-35.398189649731776

>  <r_i_glide_gscore>  (1) 
-5.5428323438023179

>  <r_i_glide_gscore_strain>  (1) 
0

>  <r_i_glide_hbond>  (1) 
-0.32000000000000001

>  <r_i_glide_ligand_efficiency>  (1) 
-0.19795829799293993

>  <r_i_glide_ligand_efficiency_ln>  (1) 
-1.2794484495788849

>  <r_i_glide_ligand_efficiency_sa>  (1) 
-0.60111798457663757

>  <r_i_glide_lipo>  (1) 
-2.0975093452363218

>  <r_i_glide_metal>  (1) 
-0

>  <r_i_glide_rewards>  (1) 
-1.4352452897171737

>  <r_lp_Energy>  (1) 
43.182693999999998

>  <r_lp_tautomer_probability>  (1) 
1

>  <s_epik_Chemistry_Notes>  (1) 
This compound has an ester and may undergo hydrolysis at high or low pH. This compound contains an acetal/aminal-like group ( X-CH(R)-Y where X, Y are N, S, or O) that may be acid/base labile, releasing an aldehyde.

>  <s_epik_cmdline>  (1) 
J2VwaWtfcHl0aG9uJywgJy1waHQnLCAnMS4wJywgJy1waCcsICc3LjQnLCAnLXRuJywgJzgnLCAnLW1hJywgJzUwMCcsICctaW1hZScsICc8aW5maWxlLm1hZT4nLCAnLW9tYWUnLCAnPG91dGZpbGUubWFlPic=

>  <s_epik_input>  (1) 
W09IXVtDQEBIXTFbQ0hdPVtDSF1DKD1bQ0hdW0NIXT1bQ0hdMSlPQyg9TylbQ0BIXShbQ0gzXSlOKFtDSDJdW09IXSlbQ0gyXVtDQEBIXShbQ0gyXVtDSDJdMilbQ0gyXVtDQEhdKE8zKVtDSDJdQyg9TylPW0NAQEhdMjM=

>  <s_glide_docking_method>  (1) 
confgen

>  <s_i_glide_gridfile>  (1) 
gpcr_drd2_6luq_protein_autoprepared_prepared

>  <s_lp_Force_Field>  (1) 
S-OPLS

>  <s_lp_Variant>  (1) 
DiffSBDD_71-2

>  <s_m_source_file>  (1) 
generated_generic_title2_ligand_DiffSBDD_2026-06-23_prepared.sdf

>  <GenAI_Model>  (1) 
DiffSBDD

>  <Protein>  (1) 
generic_title2

$$$$
DiffSBDD_38
     RDKit          3D

  0  0  0  0  0  0  0  0  0  0999 V3000
M  V30 BEGIN CTAB
M  V30 COUNTS 86 90 0 0 1
M  V30 BEGIN ATOM
M  V30 1 C 7.706829 5.291671 -13.615036 0 CFG=2
M  V30 2 C 7.904311 2.633453 -18.122329 0
M  V30 3 C 9.769650 6.229559 -10.250501 0
M  V30 4 C 7.015063 2.453284 -15.090673 0
M  V30 5 C 6.407115 0.158525 -18.973741 0 CFG=1
M  V30 6 C 8.324256 5.939093 -10.711088 0 CFG=2
M  V30 7 C 11.911335 8.459656 -8.807137 0
M  V30 8 F 4.751300 -0.315558 -17.161648 0
M  V30 9 C 7.304044 1.412441 -15.941310 0
M  V30 10 C 9.340735 3.141617 -17.782408 0 CFG=2
M  V30 11 C 6.727378 3.880598 -15.553193 0
M  V30 12 O 12.693141 8.789718 -7.651523 0
M  V30 13 C 8.068630 4.503307 -11.214510 0
M  V30 14 C 9.531536 3.974728 -16.473471 0
M  V30 15 C 8.201770 2.703686 -12.957394 0
M  V30 16 O 6.710895 0.876312 -13.245546 0
M  V30 17 C 5.730173 -1.174768 -19.251641 0
M  V30 18 C 6.508661 6.288410 -15.571026 0
M  V30 19 C 8.400951 4.220435 -12.701297 0 CFG=1
M  V30 20 C 11.989221 9.435256 -6.586367 0
M  V30 21 C 6.889254 2.241307 -13.585695 0 CFG=2
M  V30 22 O 9.375407 -1.609774 -16.840594 0
M  V30 23 C 7.518651 5.140583 -15.191664 0 CFG=1
M  V30 24 O 9.778026 7.386979 -9.421044 0
M  V30 25 C 10.022428 3.774255 -19.014116 0
M  V30 26 C 10.708423 8.698911 -6.276860 0
M  V30 27 O 9.775411 4.420440 -12.741513 0
M  V30 28 F 12.681403 7.900085 -9.740534 0
M  V30 29 C 4.991563 -0.101486 -18.508091 0
M  V30 30 F 11.366273 9.555048 -9.337594 0
M  V30 31 N 7.504497 0.152488 -18.006950 0
M  V30 32 C 8.736786 5.259194 -16.190901 0 CFG=2
M  V30 33 C 7.775526 6.983661 -11.692797 0
M  V30 34 F 3.960347 0.526940 -19.185039 0
M  V30 35 C 10.176319 7.796304 -7.104582 0
M  V30 36 N 7.490557 1.441776 -17.347500 0
M  V30 37 O 8.317343 5.700805 -17.471466 0
M  V30 38 C 8.849404 -0.129337 -18.588927 0 CFG=2
M  V30 39 C 10.800667 7.432288 -8.431373 0 CFG=2
M  V30 40 C 8.909962 -1.274719 -19.619065 0
M  V30 41 C 8.175406 6.703106 -13.141118 0
M  V30 42 O 9.730996 -0.356084 -17.496808 0
M  V30 43 H 6.675761 5.230698 -13.262209 0
M  V30 44 H 7.965650 2.303042 -19.157081 0
M  V30 45 H 7.156654 3.398806 -18.287796 0
M  V30 46 H 10.116110 5.362128 -9.689082 0
M  V30 47 H 10.449859 6.390235 -11.087203 0
M  V30 48 H 6.486203 0.811111 -19.840370 0
M  V30 49 H 7.748862 5.990228 -9.790187 0
M  V30 50 H 7.433251 0.417370 -15.540407 0
M  V30 51 H 9.938106 2.249267 -17.597748 0
M  V30 52 H 6.575410 3.933479 -16.598663 0
M  V30 53 H 5.775410 4.063339 -15.079463 0
M  V30 54 H 8.640381 3.835350 -10.576626 0
M  V30 55 H 7.020777 4.258694 -11.038927 0
M  V30 56 H 10.595092 4.178374 -16.341796 0
M  V30 57 H 9.245843 3.344792 -15.667394 0
M  V30 58 H 8.975408 2.299175 -13.585024 0
M  V30 59 H 8.423084 2.164341 -12.041642 0
M  V30 60 H 5.888622 0.568506 -13.596803 0
M  V30 61 H 5.428705 -1.376322 -20.278440 0
M  V30 62 H 6.057952 -2.041264 -18.680707 0
M  V30 63 H 6.975409 7.265555 -15.669388 0
M  V30 64 H 6.007115 6.112789 -16.523848 0
M  V30 65 H 5.703791 6.397308 -14.842588 0
M  V30 66 H 11.775405 10.475339 -6.832011 0
M  V30 67 H 12.623524 9.442391 -5.700024 0
M  V30 68 H 6.039506 2.791640 -13.180088 0
M  V30 69 H 8.657756 -1.339997 -16.284358 0
M  V30 70 H 9.453299 4.602827 -19.432354 0
M  V30 71 H 11.017536 4.145601 -18.769327 0
M  V30 72 H 10.140614 3.039124 -19.811223 0
M  V30 73 H 10.221716 8.929099 -5.342478 0
M  V30 74 H 10.125381 4.197894 -13.590346 0
M  V30 75 H 9.433053 5.990224 -15.793198 0
M  V30 76 H 8.122198 7.978060 -11.409019 0
M  V30 77 H 6.687270 7.009289 -11.616171 0
M  V30 78 H 9.257607 7.291869 -6.840176 0
M  V30 79 H 7.708056 5.070463 -17.818929 0
M  V30 80 H 9.224402 0.736164 -19.126955 0
M  V30 81 H 11.258528 6.456104 -8.267492 0
M  V30 82 H 8.298348 -1.054817 -20.493761 0
M  V30 83 H 9.927389 -1.400195 -19.984991 0
M  V30 84 H 8.571245 -2.226444 -19.210002 0
M  V30 85 H 9.258375 6.790244 -13.185017 0
M  V30 86 H 7.777301 7.519721 -13.736623 0
M  V30 END ATOM
M  V30 BEGIN BOND
M  V30 1 1 6 3
M  V30 2 2 9 4
M  V30 3 1 10 2
M  V30 4 1 11 4
M  V30 5 1 12 7
M  V30 6 1 13 6
M  V30 7 1 14 10
M  V30 8 1 17 5
M  V30 9 1 19 1
M  V30 10 1 19 13
M  V30 11 1 19 15
M  V30 12 1 20 12
M  V30 13 1 21 4
M  V30 14 1 21 15
M  V30 15 1 21 16
M  V30 16 1 23 1
M  V30 17 1 23 11
M  V30 18 1 23 18 CFG=3
M  V30 19 1 24 3
M  V30 20 1 25 10
M  V30 21 1 26 20
M  V30 22 1 19 27 CFG=1
M  V30 23 1 28 7
M  V30 24 1 29 5
M  V30 25 1 29 8
M  V30 26 1 29 17
M  V30 27 1 30 7
M  V30 28 1 31 5
M  V30 29 1 32 14
M  V30 30 1 32 23
M  V30 31 1 33 6
M  V30 32 1 34 29
M  V30 33 2 35 26
M  V30 34 1 36 2
M  V30 35 1 36 9
M  V30 36 1 36 31
M  V30 37 1 37 32
M  V30 38 1 38 31
M  V30 39 1 39 7
M  V30 40 1 39 24
M  V30 41 1 39 35
M  V30 42 1 40 38
M  V30 43 1 41 1
M  V30 44 1 41 33
M  V30 45 1 42 22
M  V30 46 1 42 38
M  V30 47 1 1 43 CFG=1
M  V30 48 1 44 2
M  V30 49 1 45 2
M  V30 50 1 46 3
M  V30 51 1 47 3
M  V30 52 1 5 48 CFG=3
M  V30 53 1 6 49 CFG=1
M  V30 54 1 50 9
M  V30 55 1 10 51 CFG=1
M  V30 56 1 52 11
M  V30 57 1 53 11
M  V30 58 1 54 13
M  V30 59 1 55 13
M  V30 60 1 56 14
M  V30 61 1 57 14
M  V30 62 1 58 15
M  V30 63 1 59 15
M  V30 64 1 60 16
M  V30 65 1 61 17
M  V30 66 1 62 17
M  V30 67 1 63 18
M  V30 68 1 64 18
M  V30 69 1 65 18
M  V30 70 1 66 20
M  V30 71 1 67 20
M  V30 72 1 21 68 CFG=1
M  V30 73 1 69 22
M  V30 74 1 70 25
M  V30 75 1 71 25
M  V30 76 1 72 25
M  V30 77 1 73 26
M  V30 78 1 74 27
M  V30 79 1 32 75 CFG=1
M  V30 80 1 76 33
M  V30 81 1 77 33
M  V30 82 1 78 35
M  V30 83 1 79 37
M  V30 84 1 38 80 CFG=3
M  V30 85 1 39 81 CFG=1
M  V30 86 1 82 40
M  V30 87 1 83 40
M  V30 88 1 84 40
M  V30 89 1 85 41
M  V30 90 1 86 41
M  V30 END BOND
M  V30 END CTAB
M  END
>  <i_epik_Tot_Q>  (1) 
0

>  <i_epik_Tot_abs_Q>  (1) 
0

>  <i_i_glide_confnum>  (1) 
486

>  <i_i_glide_lignum>  (1) 
64

>  <i_i_glide_posenum>  (1) 
339

>  <i_i_glide_rotatable_bonds>  (1) 
11

>  <i_lp_mmshare_version>  (1) 
72125

>  <i_m_source_file_index>  (1) 
39

>  <i_f3d_flags>  (1) 
0

>  <num_sample>  (1) 
100

>  <b_lp_Chiralities_Consistent>  (1) 
1

>  <r_epik_Charging_Adjusted_Penalty>  (1) 
0

>  <r_epik_Ionization_Penalty>  (1) 
2.4228423565681287e-05

>  <r_epik_Ionization_Penalty_Charging>  (1) 
0

>  <r_epik_Ionization_Penalty_Neutral>  (1) 
2.4228423565681287e-05

>  <r_epik_State_Penalty>  (1) 
-0

>  <r_glide_ring_energy>  (1) 
0.27259175540770147

>  <r_i_docking_score>  (1) 
-5.5419129174145878

>  <r_i_glide_ecoul>  (1) 
-1.9151565228319141

>  <r_i_glide_eff_state_penalty>  (1) 
-0

>  <r_i_glide_einternal>  (1) 
12.024347915522037

>  <r_i_glide_emodel>  (1) 
-42.812910911323144

>  <r_i_glide_emodel_strain>  (1) 
1.7125111703937677

>  <r_i_glide_energy>  (1) 
-25.737626822850221

>  <r_i_glide_erotb>  (1) 
0.27413222911568258

>  <r_i_glide_esite>  (1) 
-0.018585304095779475

>  <r_i_glide_evdw>  (1) 
-23.822470300018306

>  <r_i_glide_gscore>  (1) 
-5.5419129174145878

>  <r_i_glide_gscore_strain>  (1) 
0

>  <r_i_glide_hbond>  (1) 
-0.072686668195892631

>  <r_i_glide_ligand_efficiency>  (1) 
-0.13195030755749018

>  <r_i_glide_ligand_efficiency_ln>  (1) 
-1.1697550407541137

>  <r_i_glide_ligand_efficiency_sa>  (1) 
-0.45866278487079787

>  <r_i_glide_lipo>  (1) 
-2.619093030126133

>  <r_i_glide_metal>  (1) 
-0

>  <r_i_glide_rewards>  (1) 
-1.6272831506867622

>  <r_lp_Energy>  (1) 
66.758932000000001

>  <r_lp_tautomer_probability>  (1) 
1

>  <s_epik_Chemistry_Notes>  (1) 
This compound contains an acetal/aminal-like group ( X-CH(R)-Y where X, Y are N, S, or O) that may be acid/base labile, releasing an aldehyde.

>  <s_epik_cmdline>  (1) 
J2VwaWtfcHl0aG9uJywgJy1waHQnLCAnMS4wJywgJy1waCcsICc3LjQnLCAnLXRuJywgJzgnLCAnLW1hJywgJzUwMCcsICctaW1hZScsICc8aW5maWxlLm1hZT4nLCAnLW9tYWUnLCAnPG91dGZpbGUubWFlPic=

>  <s_epik_input>  (1) 
W09IXVtDQEBIXTFbQ0gyXVtDQEhdKFtDSDNdKVtDSDJdTihOKFtDQEBIXShbQ0gyXTIpQzIoRilGKVtDQEhdKFtDSDNdKU9bT0hdKS9bQ0hdPUMoW0NASF0oW0NIMl0zKVtPSF0pXFtDSDJdW0NAQF0xKFtDSDNdKVtDQEBIXShbQ0BdMzRbT0hdKVtDSDJdW0NIMl1bQ0BASF0oW0NIMl00KVtDSDJdT1tDQEBIXTVbQ0hdPVtDSF1bQ0gyXU9DNShGKUY=

>  <s_glide_docking_method>  (1) 
confgen

>  <s_i_glide_gridfile>  (1) 
gpcr_drd2_6luq_protein_autoprepared_prepared

>  <s_lp_Force_Field>  (1) 
S-OPLS

>  <s_lp_Variant>  (1) 
DiffSBDD_38-1

>  <s_m_source_file>  (1) 
generated_generic_title2_ligand_DiffSBDD_2026-06-23_prepared.sdf

>  <GenAI_Model>  (1) 
DiffSBDD

>  <Protein>  (1) 
generic_title2

$$$$
DiffSBDD_92
     RDKit          3D

  0  0  0  0  0  0  0  0  0  0999 V3000
M  V30 BEGIN CTAB
M  V30 COUNTS 50 51 0 0 1
M  V30 BEGIN ATOM
M  V30 1 O 10.785107 6.790256 -11.764361 0
M  V30 2 N 9.375416 7.177297 -10.042057 0
M  V30 3 C 9.682577 7.131622 -11.336881 0
M  V30 4 C 11.686268 6.898274 -3.698416 0
M  V30 5 Cl 5.796973 6.644322 -16.310458 0
M  V30 6 O 7.644495 5.346364 -12.557919 0
M  V30 7 C 11.575644 9.497359 -3.617562 0
M  V30 8 C 6.366625 4.720202 -14.472798 0
M  V30 9 C 6.985815 5.921915 -15.195551 0 CFG=2
M  V30 10 C 12.454289 9.460612 -2.387125 0
M  V30 11 C 12.309721 8.155752 -1.597994 0
M  V30 12 C 8.567869 7.515164 -12.292358 0
M  V30 13 C 10.006788 7.691888 -7.808189 0
M  V30 14 C 8.241319 6.382944 -13.280170 0 CFG=2
M  V30 15 O 7.366103 6.897228 -14.236426 0
M  V30 16 C 10.243817 6.732366 -8.989388 0 CFG=1
M  V30 17 N 10.885979 8.313012 -5.627035 0
M  V30 18 C 7.316309 4.234387 -13.375721 0
M  V30 19 C 10.969781 7.460804 -6.657135 0
M  V30 20 C 11.767484 8.245156 -4.468860 0
M  V30 21 O 11.775329 6.537060 -6.700111 0
M  V30 22 C 12.575783 6.919196 -2.458739 0
M  V30 23 C 9.817146 5.280122 -8.671645 0
M  V30 24 H 8.427259 7.477189 -9.774737 0
M  V30 25 H 10.666391 6.627752 -3.437580 0
M  V30 26 H 12.027586 6.073844 -4.320564 0
M  V30 27 H 11.777294 10.385269 -4.217115 0
M  V30 28 H 10.575428 9.617339 -3.273855 0
M  V30 29 H 6.175689 3.914710 -15.179004 0
M  V30 30 H 5.412436 5.006919 -14.028594 0
M  V30 31 H 7.850176 5.617218 -15.788203 0
M  V30 32 H 13.481123 9.590227 -2.720705 0
M  V30 33 H 12.175443 10.299972 -1.749517 0
M  V30 34 H 13.013843 8.174064 -0.771328 0
M  V30 35 H 11.305132 8.090161 -1.185059 0
M  V30 36 H 7.654825 7.757763 -11.745160 0
M  V30 37 H 8.875184 8.428199 -12.785035 0
M  V30 38 H 8.981516 7.601832 -7.442396 0
M  V30 39 H 10.131322 8.724140 -8.140096 0
M  V30 40 H 9.143700 5.990259 -13.760480 0
M  V30 41 H 11.290051 6.789343 -9.297471 0
M  V30 42 H 10.198412 9.049979 -5.654337 0
M  V30 43 H 8.221349 3.800970 -13.803927 0
M  V30 44 H 6.843118 3.460652 -12.770095 0
M  V30 45 H 12.781772 8.390495 -4.785022 0
M  V30 46 H 13.614455 6.922325 -2.785103 0
M  V30 47 H 12.431962 6.006282 -1.879218 0
M  V30 48 H 10.505511 4.792358 -7.985033 0
M  V30 49 H 8.821729 5.252913 -8.225750 0
M  V30 50 H 9.775473 4.665518 -9.571700 0
M  V30 END ATOM
M  V30 BEGIN BOND
M  V30 1 2 3 1
M  V30 2 1 3 2
M  V30 3 1 9 5
M  V30 4 1 9 8
M  V30 5 1 10 7
M  V30 6 1 11 10
M  V30 7 1 12 3
M  V30 8 1 14 6
M  V30 9 1 14 12
M  V30 10 1 15 9
M  V30 11 1 15 14
M  V30 12 1 16 2
M  V30 13 1 16 13
M  V30 14 1 18 6
M  V30 15 1 18 8
M  V30 16 1 19 13
M  V30 17 1 19 17
M  V30 18 1 20 4
M  V30 19 1 20 7
M  V30 20 1 20 17
M  V30 21 2 21 19
M  V30 22 1 22 4
M  V30 23 1 22 11
M  V30 24 1 23 16
M  V30 25 1 24 2
M  V30 26 1 25 4
M  V30 27 1 26 4
M  V30 28 1 27 7
M  V30 29 1 28 7
M  V30 30 1 29 8
M  V30 31 1 30 8
M  V30 32 1 9 31 CFG=3
M  V30 33 1 32 10
M  V30 34 1 33 10
M  V30 35 1 34 11
M  V30 36 1 35 11
M  V30 37 1 36 12
M  V30 38 1 37 12
M  V30 39 1 38 13
M  V30 40 1 39 13
M  V30 41 1 14 40 CFG=3
M  V30 42 1 16 41 CFG=3
M  V30 43 1 42 17
M  V30 44 1 43 18
M  V30 45 1 44 18
M  V30 46 1 45 20
M  V30 47 1 46 22
M  V30 48 1 47 22
M  V30 49 1 48 23
M  V30 50 1 49 23
M  V30 51 1 50 23
M  V30 END BOND
M  V30 END CTAB
M  END
>  <i_epik_Tot_Q>  (1) 
0

>  <i_epik_Tot_abs_Q>  (1) 
0

>  <i_i_glide_confnum>  (1) 
29

>  <i_i_glide_lignum>  (1) 
175

>  <i_i_glide_posenum>  (1) 
284

>  <i_i_glide_rotatable_bonds>  (1) 
8

>  <i_lp_mmshare_version>  (1) 
72125

>  <i_m_source_file_index>  (1) 
93

>  <i_f3d_flags>  (1) 
0

>  <num_sample>  (1) 
100

>  <b_lp_Chiralities_Consistent>  (1) 
1

>  <r_epik_Charging_Adjusted_Penalty>  (1) 
0

>  <r_epik_Ionization_Penalty>  (1) 
1.562769370877429e-07

>  <r_epik_Ionization_Penalty_Charging>  (1) 
0

>  <r_epik_Ionization_Penalty_Neutral>  (1) 
1.562769370877429e-07

>  <r_epik_State_Penalty>  (1) 
-0

>  <r_glide_ring_energy>  (1) 
0

>  <r_i_docking_score>  (1) 
-5.5338778403733748

>  <r_i_glide_ecoul>  (1) 
-4.3866614306143665

>  <r_i_glide_eff_state_penalty>  (1) 
-0

>  <r_i_glide_einternal>  (1) 
4.3654295435005235

>  <r_i_glide_emodel>  (1) 
-41.248225783067376

>  <r_i_glide_emodel_strain>  (1) 
0.51644486844411563

>  <r_i_glide_energy>  (1) 
-32.072413156833989

>  <r_i_glide_erotb>  (1) 
0.94841189780278856

>  <r_i_glide_esite>  (1) 
-0.15403452608462193

>  <r_i_glide_evdw>  (1) 
-27.685751726219621

>  <r_i_glide_gscore>  (1) 
-5.5338778403733748

>  <r_i_glide_gscore_strain>  (1) 
0

>  <r_i_glide_hbond>  (1) 
-0.16

>  <r_i_glide_ligand_efficiency>  (1) 
-0.24060338436405979

>  <r_i_glide_ligand_efficiency_ln>  (1) 
-1.3381418402322782

>  <r_i_glide_ligand_efficiency_sa>  (1) 
-0.68424402003348406

>  <r_i_glide_lipo>  (1) 
-2.3647739314761647

>  <r_i_glide_metal>  (1) 
-0

>  <r_i_glide_rewards>  (1) 
-1.761194479712241

>  <r_lp_Energy>  (1) 
5.1782649999999997

>  <r_lp_tautomer_probability>  (1) 
1

>  <s_epik_Chemistry_Notes>  (1) 
This compound contains an acetal/aminal-like group ( X-CH(R)-Y where X, Y are N, S, or O) that may be acid/base labile, releasing an aldehyde.

>  <s_epik_cmdline>  (1) 
J2VwaWtfcHl0aG9uJywgJy1waHQnLCAnMS4wJywgJy1waCcsICc3LjQnLCAnLXRuJywgJzgnLCAnLW1hJywgJzUwMCcsICctaW1hZScsICc8aW5maWxlLm1hZT4nLCAnLW9tYWUnLCAnPG91dGZpbGUubWFlPic=

>  <s_epik_input>  (1) 
Q2xbQ0BASF0xW0NIMl1bQ0gyXU9bQ0BASF0oTzEpW0NIMl1DKD1PKVtOSF1bQ0BIXShbQ0gzXSlbQ0gyXUMoPU8pW05IXVtDSF0yW0NIMl1bQ0gyXVtDSDJdW0NIMl1bQ0gyXTI=

>  <s_glide_docking_method>  (1) 
confgen

>  <s_i_glide_gridfile>  (1) 
gpcr_drd2_6luq_protein_autoprepared_prepared

>  <s_lp_Force_Field>  (1) 
S-OPLS

>  <s_lp_Variant>  (1) 
DiffSBDD_92-1

>  <s_m_source_file>  (1) 
generated_generic_title2_ligand_DiffSBDD_2026-06-23_prepared.sdf

>  <GenAI_Model>  (1) 
DiffSBDD

>  <Protein>  (1) 
generic_title2

$$$$
DiffSBDD_16
     RDKit          3D

  0  0  0  0  0  0  0  0  0  0999 V3000
M  V30 BEGIN CTAB
M  V30 COUNTS 63 67 0 0 1
M  V30 BEGIN ATOM
M  V30 1 N 11.009613 8.007090 -9.663121 0
M  V30 2 C 8.669628 4.870294 -13.498558 0
M  V30 3 C 7.971853 1.185761 -15.823131 0 CFG=1
M  V30 4 C 7.586954 0.617232 -14.428608 0
M  V30 5 N 7.995428 4.456624 -11.047524 0
M  V30 6 N 11.375427 8.790235 -8.538766 0
M  V30 7 C 8.382255 5.079985 -9.659044 0
M  V30 8 C 9.574185 6.016825 -11.418715 0
M  V30 9 C 8.696254 5.067128 -11.950216 0
M  V30 10 C 7.057014 2.887827 -13.248616 0
M  V30 11 Cl 11.775186 9.464395 -5.284837 0
M  V30 12 C 10.854869 8.161423 -6.108374 0
M  V30 13 C 10.129367 -0.409258 -17.758075 0
M  V30 14 O 9.352982 5.590223 -14.215131 0
M  V30 15 C 7.746076 0.180476 -16.996448 0 CFG=1
M  V30 16 C 10.404298 8.543424 -7.468053 0 CFG=2
M  V30 17 C 9.740367 6.388911 -6.636161 0
M  V30 18 N 7.595189 -3.062379 -19.860096 0
M  V30 19 C 10.260973 6.858093 -9.162438 0 CFG=1
M  V30 20 C 9.606061 7.323235 -7.854231 0 CFG=2
M  V30 21 N 7.813609 -3.136876 -17.585033 0 CHG=1
M  V30 22 C 8.811506 -0.922531 -17.144686 0 CFG=1
M  V30 23 N 7.841636 3.882274 -14.014923 0
M  V30 24 O 6.474152 -0.425903 -16.885214 0
M  V30 25 C 8.255327 -1.999431 -18.033026 0
M  V30 26 C 7.752962 3.771318 -15.487667 0
M  V30 27 N 7.358113 -3.926483 -18.647216 0
M  V30 28 N 10.575300 7.034723 -5.638243 0
M  V30 29 N 8.156715 -1.894345 -19.329550 0
M  V30 30 C 9.433165 6.028687 -10.149999 0
M  V30 31 C 7.808976 1.536429 -13.202560 0
M  V30 32 C 7.216705 2.480023 -16.128695 0
M  V30 33 H 10.396214 8.572825 -10.247255 0
M  V30 34 H 9.023202 1.446961 -15.816536 0
M  V30 35 H 6.536524 0.323428 -14.431532 0
M  V30 36 H 8.139884 -0.306492 -14.260769 0
M  V30 37 H 11.400741 9.775976 -8.791975 0
M  V30 38 H 7.539395 5.590220 -9.193218 0
M  V30 39 H 8.822158 4.390208 -8.951486 0
M  V30 40 H 10.263315 6.582187 -12.030181 0
M  V30 41 H 6.619467 3.157248 -12.300143 0
M  V30 42 H 6.121174 2.730600 -13.779202 0
M  V30 43 H 10.867557 -1.208802 -17.790206 0
M  V30 44 H 9.991952 -0.038496 -18.773382 0
M  V30 45 H 10.562758 0.408604 -17.186100 0
M  V30 46 H 7.736604 0.717976 -17.945594 0
M  V30 47 H 10.173533 5.438397 -6.934819 0
M  V30 48 H 8.755367 6.173191 -6.218524 0
M  V30 49 H 6.698131 -2.831757 -20.284745 0
M  V30 50 H 11.025840 6.154708 -8.839671 0
M  V30 51 H 8.575415 7.616892 -7.985226 0
M  V30 52 H 9.018207 -1.361902 -16.167503 0
M  V30 53 H 5.819623 0.249228 -16.782560 0
M  V30 54 H 8.739602 3.936184 -15.924932 0
M  V30 55 H 7.137740 4.603032 -15.833573 0
M  V30 56 H 6.356387 -4.078643 -18.535072 0
M  V30 57 H 9.706025 9.367578 -7.366412 0
M  V30 58 H 8.445576 -1.078838 -19.852367 0
M  V30 59 H 8.873635 1.695339 -13.027536 0
M  V30 60 H 7.453127 0.973873 -12.343283 0
M  V30 61 H 7.231313 2.671658 -17.201586 0
M  V30 62 H 6.175409 2.325136 -15.898198 0
M  V30 63 H 7.775370 -3.374061 -16.592174 0
M  V30 END ATOM
M  V30 BEGIN BOND
M  V30 1 1 4 3
M  V30 2 1 6 1
M  V30 3 1 7 5
M  V30 4 1 9 2
M  V30 5 2 9 5
M  V30 6 1 9 8
M  V30 7 1 12 11
M  V30 8 2 14 2
M  V30 9 1 15 3
M  V30 10 1 16 6
M  V30 11 1 16 12
M  V30 12 1 19 1
M  V30 13 1 20 16
M  V30 14 1 20 17
M  V30 15 1 20 19
M  V30 16 1 22 13
M  V30 17 1 22 15
M  V30 18 1 23 2
M  V30 19 1 23 10
M  V30 20 1 24 15
M  V30 21 2 25 21
M  V30 22 1 25 22
M  V30 23 1 26 23
M  V30 24 1 27 18
M  V30 25 1 27 21
M  V30 26 2 28 12
M  V30 27 1 28 17
M  V30 28 1 29 18
M  V30 29 1 29 25
M  V30 30 1 30 7
M  V30 31 2 30 8
M  V30 32 1 30 19
M  V30 33 1 31 4
M  V30 34 1 31 10
M  V30 35 1 32 3
M  V30 36 1 32 26
M  V30 37 1 33 1
M  V30 38 1 3 34 CFG=1
M  V30 39 1 35 4
M  V30 40 1 36 4
M  V30 41 1 37 6
M  V30 42 1 38 7
M  V30 43 1 39 7
M  V30 44 1 40 8
M  V30 45 1 41 10
M  V30 46 1 42 10
M  V30 47 1 43 13
M  V30 48 1 44 13
M  V30 49 1 45 13
M  V30 50 1 15 46 CFG=3
M  V30 51 1 47 17
M  V30 52 1 48 17
M  V30 53 1 49 18
M  V30 54 1 19 50 CFG=1
M  V30 55 1 20 51 CFG=3
M  V30 56 1 22 52 CFG=1
M  V30 57 1 53 24
M  V30 58 1 54 26
M  V30 59 1 55 26
M  V30 60 1 56 27
M  V30 61 1 16 57 CFG=1
M  V30 62 1 58 29
M  V30 63 1 59 31
M  V30 64 1 60 31
M  V30 65 1 61 32
M  V30 66 1 62 32
M  V30 67 1 63 21
M  V30 END BOND
M  V30 END CTAB
M  END
>  <i_epik_Tot_Q>  (1) 
1

>  <i_epik_Tot_abs_Q>  (1) 
1

>  <i_i_glide_confnum>  (1) 
295

>  <i_i_glide_lignum>  (1) 
31

>  <i_i_glide_posenum>  (1) 
340

>  <i_i_glide_rotatable_bonds>  (1) 
7

>  <i_lp_mmshare_version>  (1) 
72125

>  <i_m_source_file_index>  (1) 
17

>  <i_f3d_flags>  (1) 
0

>  <num_sample>  (1) 
100

>  <b_lp_Chiralities_Consistent>  (1) 
1

>  <r_epik_Charging_Adjusted_Penalty>  (1) 
0.0018574901874323989

>  <r_epik_Ionization_Penalty>  (1) 
0.0019640421356001223

>  <r_epik_Ionization_Penalty_Charging>  (1) 
0.0018574901874323989

>  <r_epik_Ionization_Penalty_Neutral>  (1) 
0.00010655194816772327

>  <r_epik_State_Penalty>  (1) 
-0

>  <r_glide_ring_energy>  (1) 
0.16544429942790889

>  <r_i_docking_score>  (1) 
-5.5329933571384711

>  <r_i_glide_ecoul>  (1) 
-6.8014363778370441

>  <r_i_glide_eff_state_penalty>  (1) 
-0

>  <r_i_glide_einternal>  (1) 
6.8254409365008932

>  <r_i_glide_emodel>  (1) 
-61.060647274794697

>  <r_i_glide_emodel_strain>  (1) 
0.92643799983315489

>  <r_i_glide_energy>  (1) 
-47.217483741315704

>  <r_i_glide_erotb>  (1) 
0.55955952450974478

>  <r_i_glide_esite>  (1) 
-0.1091026286329196

>  <r_i_glide_evdw>  (1) 
-40.416047363478661

>  <r_i_glide_gscore>  (1) 
-5.5329933571384711

>  <r_i_glide_gscore_strain>  (1) 
0

>  <r_i_glide_hbond>  (1) 
0

>  <r_i_glide_ligand_efficiency>  (1) 
-0.17290604241057722

>  <r_i_glide_ligand_efficiency_ln>  (1) 
-1.2389880363658861

>  <r_i_glide_ligand_efficiency_sa>  (1) 
-0.54894246722841689

>  <r_i_glide_lipo>  (1) 
-1.6141430880093017

>  <r_i_glide_metal>  (1) 
-0

>  <r_i_glide_rewards>  (1) 
-1.328289340156505

>  <r_lp_Energy>  (1) 
1.743153

>  <r_lp_tautomer_probability>  (1) 
1

>  <s_epik_Chemistry_Notes>  (1) 
This compound has an imine and may undergo hydrolysis.

>  <s_epik_cmdline>  (1) 
J2VwaWtfcHl0aG9uJywgJy1waHQnLCAnMS4wJywgJy1waCcsICc3LjQnLCAnLXRuJywgJzgnLCAnLW1hJywgJzUwMCcsICctaW1hZScsICc8aW5maWxlLm1hZT4nLCAnLW9tYWUnLCAnPG91dGZpbGUubWFlPic=

>  <s_epik_input>  (1) 
Q2xDPTFbTkhdW0NIMl1bQ0BASF0oQzEyKVtDQEhdKFtOSF1bTkhdMilDKD1bQ0hdMylbQ0gyXU49QzNDKD1PKU4oW0NIMl1bQ0gyXTQpW0NIMl1bQ0gyXVtDSDJdW0NASF00W0NASF0oW09IXSlbQ0BIXShbQ0gzXSlDNT1OW05IXVtOSF1bTkhdNQ==

>  <s_glide_docking_method>  (1) 
confgen

>  <s_i_glide_gridfile>  (1) 
gpcr_drd2_6luq_protein_autoprepared_prepared

>  <s_lp_Force_Field>  (1) 
S-OPLS

>  <s_lp_Variant>  (1) 
DiffSBDD_16-1

>  <s_m_source_file>  (1) 
generated_generic_title2_ligand_DiffSBDD_2026-06-23_prepared.sdf

>  <GenAI_Model>  (1) 
DiffSBDD

>  <Protein>  (1) 
generic_title2

$$$$
DiffSBDD_64
     RDKit          3D

  0  0  0  0  0  0  0  0  0  0999 V3000
M  V30 BEGIN CTAB
M  V30 COUNTS 77 80 0 0 1
M  V30 BEGIN ATOM
M  V30 1 C 8.071714 3.367710 -13.214445 0
M  V30 2 C 11.194938 9.256117 -5.385342 0
M  V30 3 C 6.912844 2.173455 -15.098985 0 CFG=2
M  V30 4 C 8.488757 5.695744 -8.922929 0
M  V30 5 C 11.949053 7.119939 -2.384326 0
M  V30 6 C 7.310823 0.001301 -13.740650 0
M  V30 7 C 8.685528 6.168424 -10.371580 0 CFG=1
M  V30 8 O 13.327233 9.498118 -4.384058 0
M  V30 9 C 5.377740 1.607245 -13.331652 0
M  V30 10 C 8.184537 1.944932 -15.921152 0
M  V30 11 C 9.743237 5.786969 -8.082638 0
M  V30 12 C 12.094871 8.468195 -1.721418 0
M  V30 13 C 11.643510 9.453660 -2.794397 0
M  V30 14 C 5.376042 3.989783 -12.138242 0
M  V30 15 N 6.910118 3.300676 -14.125509 0 CFG=1 CHG=1
M  V30 16 C 8.996737 5.614455 -13.942732 0
M  V30 17 C 12.070682 8.891659 -4.153638 0 CFG=1
M  V30 18 C 6.300213 0.965025 -14.378927 0 CFG=1
M  V30 19 C 5.634587 3.136075 -13.389643 0 CFG=1
M  V30 20 C 9.538811 7.455684 -10.473976 0
M  V30 21 C 10.749054 7.478248 -9.537010 0
M  V30 22 C 11.765842 8.790319 -6.750898 0
M  V30 23 C 11.775359 6.179887 -6.159873 0
M  V30 24 C 11.320921 6.456395 -4.726525 0
M  V30 25 C 12.212141 7.382692 -3.877350 0 CFG=2
M  V30 26 S 9.375426 4.808397 -11.334647 0
M  V30 27 N 10.390057 7.131252 -8.133398 0 CFG=2 CHG=1
M  V30 28 C 11.565664 7.314042 -7.209860 0 CFG=1
M  V30 29 C 8.374635 4.807357 -12.823886 0 CFG=2
M  V30 30 H 8.975393 2.943899 -13.614199 0
M  V30 31 H 7.867416 2.753974 -12.343940 0
M  V30 32 H 10.175569 8.894211 -5.280308 0
M  V30 33 H 11.107405 10.344662 -5.415360 0
M  V30 34 H 6.178608 2.441413 -15.851460 0
M  V30 35 H 8.077905 4.684980 -8.892197 0
M  V30 36 H 7.775550 6.295827 -8.384988 0
M  V30 37 H 12.635850 6.377683 -1.971665 0
M  V30 38 H 10.940088 6.742755 -2.217838 0
M  V30 39 H 7.944494 0.491937 -13.002809 0
M  V30 40 H 6.779354 -0.810247 -13.243030 0
M  V30 41 H 7.962789 -0.451923 -14.486612 0
M  V30 42 H 7.705178 6.389127 -10.784995 0
M  V30 43 H 13.827301 9.453396 -3.582479 0
M  V30 44 H 5.594849 1.192665 -12.346020 0
M  V30 45 H 4.341953 1.375876 -13.584997 0
M  V30 46 H 7.963667 1.276237 -16.752808 0
M  V30 47 H 8.561240 2.877455 -16.339593 0
M  V30 48 H 8.975404 1.473325 -15.348090 0
M  V30 49 H 10.435600 5.002325 -8.387803 0
M  V30 50 H 9.411818 5.583286 -7.064611 0
M  V30 51 H 13.140571 8.648648 -1.466298 0
M  V30 52 H 11.509856 8.540927 -0.806750 0
M  V30 53 H 12.092473 10.390254 -2.540224 0
M  V30 54 H 10.575525 9.591351 -2.785916 0
M  V30 55 H 4.307792 3.990353 -11.985020 0
M  V30 56 H 5.898538 3.648283 -11.244588 0
M  V30 57 H 5.541784 5.053140 -12.288229 0
M  V30 58 H 8.401661 5.589706 -14.857232 0
M  V30 59 H 8.975273 6.642304 -13.585090 0
M  V30 60 H 10.020098 5.314835 -14.177481 0
M  V30 61 H 5.706974 0.389715 -15.092378 0
M  V30 62 H 4.869427 3.591355 -13.985036 0
M  V30 63 H 9.864936 7.608010 -11.502470 0
M  V30 64 H 8.953030 8.337034 -10.232878 0
M  V30 65 H 11.200833 8.470261 -9.571354 0
M  V30 66 H 11.508322 6.790292 -9.895837 0
M  V30 67 H 12.831299 9.014979 -6.787670 0
M  V30 68 H 11.358963 9.450303 -7.513354 0
M  V30 69 H 12.775083 5.795317 -6.207704 0
M  V30 70 H 11.374990 5.227017 -6.456631 0
M  V30 71 H 11.296333 5.514602 -4.206082 0
M  V30 72 H 10.280919 6.775886 -4.717890 0
M  V30 73 H 13.269644 7.190251 -3.984997 0
M  V30 74 H 12.427719 7.190253 -7.863191 0
M  V30 75 H 7.474415 5.343116 -12.587364 0
M  V30 76 H 9.675786 7.786451 -7.837655 0
M  V30 77 H 6.888316 4.163548 -14.651443 0
M  V30 END ATOM
M  V30 BEGIN BOND
M  V30 1 1 7 4
M  V30 2 1 10 3
M  V30 3 1 11 4
M  V30 4 1 12 5
M  V30 5 1 13 12
M  V30 6 1 15 1
M  V30 7 1 15 3
M  V30 8 1 17 2
M  V30 9 1 17 8 CFG=3
M  V30 10 1 17 13
M  V30 11 1 18 3
M  V30 12 1 18 6
M  V30 13 1 18 9
M  V30 14 1 19 9
M  V30 15 1 19 14
M  V30 16 1 19 15
M  V30 17 1 20 7
M  V30 18 1 21 20
M  V30 19 1 22 2
M  V30 20 1 24 23
M  V30 21 1 25 5
M  V30 22 1 25 17
M  V30 23 1 25 24
M  V30 24 1 26 7
M  V30 25 1 27 11
M  V30 26 1 27 21
M  V30 27 1 28 22
M  V30 28 1 28 23
M  V30 29 1 28 27
M  V30 30 1 29 1
M  V30 31 1 29 16
M  V30 32 1 29 26
M  V30 33 1 30 1
M  V30 34 1 31 1
M  V30 35 1 32 2
M  V30 36 1 33 2
M  V30 37 1 3 34 CFG=3
M  V30 38 1 35 4
M  V30 39 1 36 4
M  V30 40 1 37 5
M  V30 41 1 38 5
M  V30 42 1 39 6
M  V30 43 1 40 6
M  V30 44 1 41 6
M  V30 45 1 7 42 CFG=3
M  V30 46 1 43 8
M  V30 47 1 44 9
M  V30 48 1 45 9
M  V30 49 1 46 10
M  V30 50 1 47 10
M  V30 51 1 48 10
M  V30 52 1 49 11
M  V30 53 1 50 11
M  V30 54 1 51 12
M  V30 55 1 52 12
M  V30 56 1 53 13
M  V30 57 1 54 13
M  V30 58 1 55 14
M  V30 59 1 56 14
M  V30 60 1 57 14
M  V30 61 1 58 16
M  V30 62 1 59 16
M  V30 63 1 60 16
M  V30 64 1 18 61 CFG=3
M  V30 65 1 19 62 CFG=3
M  V30 66 1 63 20
M  V30 67 1 64 20
M  V30 68 1 65 21
M  V30 69 1 66 21
M  V30 70 1 67 22
M  V30 71 1 68 22
M  V30 72 1 69 23
M  V30 73 1 70 23
M  V30 74 1 71 24
M  V30 75 1 72 24
M  V30 76 1 25 73 CFG=1
M  V30 77 1 28 74 CFG=3
M  V30 78 1 29 75 CFG=1
M  V30 79 1 27 76 CFG=1
M  V30 80 1 15 77 CFG=3
M  V30 END BOND
M  V30 END CTAB
M  END
>  <i_epik_Tot_Q>  (1) 
2

>  <i_epik_Tot_abs_Q>  (1) 
2

>  <i_i_glide_confnum>  (1) 
97

>  <i_i_glide_lignum>  (1) 
102

>  <i_i_glide_posenum>  (1) 
308

>  <i_i_glide_rotatable_bonds>  (1) 
6

>  <i_lp_mmshare_version>  (1) 
72125

>  <i_m_source_file_index>  (1) 
65

>  <i_f3d_flags>  (1) 
0

>  <num_sample>  (1) 
100

>  <b_lp_Chiralities_Consistent>  (1) 
1

>  <r_epik_Charging_Adjusted_Penalty>  (1) 
0.010385271147369776

>  <r_epik_Ionization_Penalty>  (1) 
0.010385491156522124

>  <r_epik_Ionization_Penalty_Charging>  (1) 
0.010385271147369776

>  <r_epik_Ionization_Penalty_Neutral>  (1) 
2.2000915234807092e-07

>  <r_epik_State_Penalty>  (1) 
-0

>  <r_glide_ring_energy>  (1) 
0

>  <r_i_docking_score>  (1) 
-5.5270626922043924

>  <r_i_glide_ecoul>  (1) 
-3.3823621683139971

>  <r_i_glide_eff_state_penalty>  (1) 
-0

>  <r_i_glide_einternal>  (1) 
3.7948481218072434

>  <r_i_glide_emodel>  (1) 
-17.451608482746099

>  <r_i_glide_emodel_strain>  (1) 
4.6366462646716542

>  <r_i_glide_energy>  (1) 
-15.484117168168918

>  <r_i_glide_erotb>  (1) 
0.5496323063178965

>  <r_i_glide_esite>  (1) 
-0.025169362555297416

>  <r_i_glide_evdw>  (1) 
-12.101754999854922

>  <r_i_glide_gscore>  (1) 
-5.5270626922043924

>  <r_i_glide_gscore_strain>  (1) 
0.15916156616791355

>  <r_i_glide_hbond>  (1) 
0

>  <r_i_glide_ligand_efficiency>  (1) 
-0.19058836869670318

>  <r_i_glide_ligand_efficiency_ln>  (1) 
-1.2655572022977681

>  <r_i_glide_ligand_efficiency_sa>  (1) 
-0.58554785192689918

>  <r_i_glide_lipo>  (1) 
-3.6850958768950579

>  <r_i_glide_metal>  (1) 
-0

>  <r_i_glide_rewards>  (1) 
-1.4131492500000007

>  <r_lp_Energy>  (1) 
54.772919999999999

>  <r_lp_tautomer_probability>  (1) 
1

>  <s_epik_cmdline>  (1) 
J2VwaWtfcHl0aG9uJywgJy1waHQnLCAnMS4wJywgJy1waCcsICc3LjQnLCAnLXRuJywgJzgnLCAnLW1hJywgJzUwMCcsICctaW1hZScsICc8aW5maWxlLm1hZT4nLCAnLW9tYWUnLCAnPG91dGZpbGUubWFlPic=

>  <s_epik_input>  (1) 
W0NIM11bQ0BIXTFbQ0gyXVtDQEBIXShbQ0gzXSlOKFtDQEhdMVtDSDNdKVtDSDJdW0NASF0oW0NIM10pU1tDSF0yW0NIMl1bQ0gyXU4oW0NIMl1bQ0gyXTIpW0NAQEhdKFtDSDJdW0NIMl0zKVtDSDJdW0NIMl1bQ0BASF0oW0NAQF0zNFtPSF0pW0NIMl1bQ0gyXVtDSDJdNA==

>  <s_glide_docking_method>  (1) 
confgen

>  <s_i_glide_gridfile>  (1) 
gpcr_drd2_6luq_protein_autoprepared_prepared

>  <s_lp_Force_Field>  (1) 
S-OPLS

>  <s_lp_Variant>  (1) 
DiffSBDD_64-1

>  <s_m_source_file>  (1) 
generated_generic_title2_ligand_DiffSBDD_2026-06-23_prepared.sdf

>  <GenAI_Model>  (1) 
DiffSBDD

>  <Protein>  (1) 
generic_title2

$$$$
DiffSBDD_88
     RDKit          3D

  0  0  0  0  0  0  0  0  0  0999 V3000
M  V30 BEGIN CTAB
M  V30 COUNTS 37 38 0 0 1
M  V30 BEGIN ATOM
M  V30 1 C 9.080668 5.382960 -9.447001 0 CFG=1
M  V30 2 F 7.178697 5.590229 -10.882618 0
M  V30 3 C 10.861957 7.396225 -5.539170 0
M  V30 4 C 11.775412 7.709169 -4.346067 0
M  V30 5 O 11.384569 9.072248 -8.700634 0
M  V30 6 O 11.375399 9.990226 -3.798117 0
M  V30 7 O 8.175299 5.190144 -8.384682 0
M  V30 8 C 12.232223 9.161171 -4.539608 0 CFG=2
M  V30 9 C 10.175644 7.442786 -10.625907 0
M  V30 10 N 11.288388 8.366849 -6.550916 0
M  V30 11 C 8.394599 5.055807 -10.788871 0 CFG=1
M  V30 12 F 8.410154 7.643107 -12.160306 0
M  V30 13 C 9.530172 6.953017 -11.938678 0 CFG=2
M  V30 14 C 10.980857 8.254288 -7.870882 0
M  V30 15 C 8.640809 5.002984 -13.329076 0
M  V30 16 N 10.190134 7.138989 -8.141971 0
M  V30 17 C 9.840007 6.708289 -9.303213 0
M  V30 18 C 12.089777 9.470233 -6.039151 0
M  V30 19 C 9.254808 5.447302 -11.991287 0 CFG=2
M  V30 20 H 9.832437 4.607644 -9.304814 0
M  V30 21 H 9.813598 7.567061 -5.293377 0
M  V30 22 H 10.981103 6.354858 -5.845010 0
M  V30 23 H 12.585720 7.003142 -4.385024 0
M  V30 24 H 11.375411 7.521443 -3.355338 0
M  V30 25 H 11.421898 10.867630 -4.144530 0
M  V30 26 H 7.578149 5.932476 -8.388655 0
M  V30 27 H 13.254091 9.316929 -4.191034 0
M  V30 28 H 9.907016 8.493313 -10.528764 0
M  V30 29 H 11.257910 7.402090 -10.752253 0
M  V30 30 H 8.206482 3.989941 -10.822372 0
M  V30 31 H 10.186830 7.225108 -12.764835 0
M  V30 32 H 7.674886 5.477982 -13.504141 0
M  V30 33 H 9.294608 5.258209 -14.163464 0
M  V30 34 H 8.488465 3.923567 -13.349981 0
M  V30 35 H 11.621022 10.436458 -6.234039 0
M  V30 36 H 13.068472 9.464731 -6.521690 0
M  V30 37 H 10.208034 4.926737 -11.901021 0
M  V30 END ATOM
M  V30 BEGIN BOND
M  V30 1 1 4 3
M  V30 2 1 7 1
M  V30 3 1 8 4
M  V30 4 1 8 6
M  V30 5 1 10 3
M  V30 6 1 11 1
M  V30 7 1 11 2
M  V30 8 1 13 9
M  V30 9 1 13 12
M  V30 10 2 14 5
M  V30 11 1 14 10
M  V30 12 1 16 14
M  V30 13 1 17 1
M  V30 14 1 17 9
M  V30 15 2 17 16
M  V30 16 1 18 8
M  V30 17 1 18 10
M  V30 18 1 19 11
M  V30 19 1 19 13
M  V30 20 1 19 15
M  V30 21 1 1 20 CFG=1
M  V30 22 1 21 3
M  V30 23 1 22 3
M  V30 24 1 23 4
M  V30 25 1 24 4
M  V30 26 1 25 6
M  V30 27 1 26 7
M  V30 28 1 8 27 CFG=1
M  V30 29 1 28 9
M  V30 30 1 29 9
M  V30 31 1 11 30 CFG=1
M  V30 32 1 13 31 CFG=3
M  V30 33 1 32 15
M  V30 34 1 33 15
M  V30 35 1 34 15
M  V30 36 1 35 18
M  V30 37 1 36 18
M  V30 38 1 19 37 CFG=1
M  V30 END BOND
M  V30 END CTAB
M  END
>  <i_epik_Tot_Q>  (1) 
0

>  <i_epik_Tot_abs_Q>  (1) 
0

>  <i_i_glide_confnum>  (1) 
14

>  <i_i_glide_lignum>  (1) 
161

>  <i_i_glide_posenum>  (1) 
310

>  <i_i_glide_rotatable_bonds>  (1) 
4

>  <i_lp_mmshare_version>  (1) 
72125

>  <i_m_source_file_index>  (1) 
89

>  <i_f3d_flags>  (1) 
0

>  <num_sample>  (1) 
100

>  <b_lp_Chiralities_Consistent>  (1) 
1

>  <r_epik_Charging_Adjusted_Penalty>  (1) 
0.16120785643113181

>  <r_epik_Ionization_Penalty>  (1) 
0.1612079103687071

>  <r_epik_Ionization_Penalty_Charging>  (1) 
0

>  <r_epik_Ionization_Penalty_Neutral>  (1) 
0.1612079103687071

>  <r_epik_State_Penalty>  (1) 
0.16120785643113181

>  <r_glide_ring_energy>  (1) 
0.4270305328909797

>  <r_i_docking_score>  (1) 
-5.5255754958982424

>  <r_i_glide_ecoul>  (1) 
-0.761948536033485

>  <r_i_glide_eff_state_penalty>  (1) 
0.16120785643113181

>  <r_i_glide_einternal>  (1) 
3.6833600820631016

>  <r_i_glide_emodel>  (1) 
-37.76357519360333

>  <r_i_glide_emodel_strain>  (1) 
3.9305640934909718

>  <r_i_glide_energy>  (1) 
-33.561140026022031

>  <r_i_glide_erotb>  (1) 
0.47132455663783185

>  <r_i_glide_esite>  (1) 
-0.26538741938766686

>  <r_i_glide_evdw>  (1) 
-32.799191489988544

>  <r_i_glide_gscore>  (1) 
-5.6867833523293738

>  <r_i_glide_gscore_strain>  (1) 
0

>  <r_i_glide_hbond>  (1) 
-0.195460450869334

>  <r_i_glide_ligand_efficiency>  (1) 
-0.29081976294201278

>  <r_i_glide_ligand_efficiency_ln>  (1) 
-1.4008520666900863

>  <r_i_glide_ligand_efficiency_sa>  (1) 
-0.77602393491539212

>  <r_i_glide_lipo>  (1) 
-1.1697137312525883

>  <r_i_glide_metal>  (1) 
-0

>  <r_i_glide_rewards>  (1) 
-2.7732944525531655

>  <r_lp_Energy>  (1) 
16.803401000000001

>  <s_epik_Chemistry_Notes>  (1) 
This compound has an imine and may undergo hydrolysis.

>  <s_epik_cmdline>  (1) 
J2VwaWtfcHl0aG9uJywgJy1waHQnLCAnMS4wJywgJy1waCcsICc3LjQnLCAnLXRuJywgJzgnLCAnLW1hJywgJzUwMCcsICctaW1hZScsICc8aW5maWxlLm1hZT4nLCAnLW9tYWUnLCAnPG91dGZpbGUubWFlPic=

>  <s_epik_input>  (1) 
W09IXVtDQEhdMVtDQEBIXShGKVtDQEBIXShbQ0gzXSlbQ0BASF0oRilbQ0gyXUMvMT1OXEMoPU8pTihbQ0gyXTIpW0NIMl1bQ0gyXVtDQEBIXTJbT0hd

>  <s_glide_docking_method>  (1) 
confgen

>  <s_i_glide_gridfile>  (1) 
gpcr_drd2_6luq_protein_autoprepared_prepared

>  <s_lp_Force_Field>  (1) 
S-OPLS

>  <s_lp_Variant>  (1) 
DiffSBDD_88-2

>  <s_m_source_file>  (1) 
generated_generic_title2_ligand_DiffSBDD_2026-06-23_prepared.sdf

>  <GenAI_Model>  (1) 
DiffSBDD

>  <Protein>  (1) 
generic_title2

$$$$
DiffSBDD_11
     RDKit          3D

  0  0  0  0  0  0  0  0  0  0999 V3000
M  V30 BEGIN CTAB
M  V30 COUNTS 43 43 0 0 1
M  V30 BEGIN ATOM
M  V30 1 C 8.709761 6.473611 -11.307966 0 CFG=1
M  V30 2 C 12.464342 9.635613 -4.912710 0
M  V30 3 C 9.476489 7.805736 -11.249419 0
M  V30 4 C 10.970354 7.824082 -8.060191 0
M  V30 5 C 11.992247 9.020958 -1.702800 0
M  V30 6 C 10.914836 8.520601 -6.682953 0 CFG=1
M  V30 7 C 11.375433 7.483944 -4.440494 0
M  V30 8 C 11.340489 8.653618 -9.286223 0
M  V30 9 C 10.705732 7.460459 -5.603648 0
M  V30 10 C 9.315128 5.447506 -12.281760 0
M  V30 11 N 8.575414 5.912553 -9.957527 0 CHG=1
M  V30 12 N 12.261235 8.469257 -4.076782 0
M  V30 13 C 12.917737 8.484531 -2.782026 0
M  V30 14 C 9.695233 6.390346 -5.915100 0
M  V30 15 C 12.178654 9.365513 -6.399960 0
M  V30 16 S 11.216316 7.590243 -10.754350 0
M  V30 17 H 7.696128 6.692702 -11.647075 0
M  V30 18 H 13.488073 9.990276 -4.801885 0
M  V30 19 H 11.781873 10.399553 -4.547266 0
M  V30 20 H 8.976310 8.489879 -10.562315 0
M  V30 21 H 9.457811 8.290769 -12.225314 0
M  V30 22 H 11.665656 6.985598 -8.002981 0
M  V30 23 H 9.990557 7.401122 -8.264767 0
M  V30 24 H 12.551042 9.160066 -0.785033 0
M  V30 25 H 11.580061 9.988400 -1.985970 0
M  V30 26 H 11.174146 8.327078 -1.512163 0
M  V30 27 H 10.044452 9.177186 -6.652742 0
M  V30 28 H 11.229843 6.728208 -3.681072 0
M  V30 29 H 10.702485 9.529467 -9.392160 0
M  V30 30 H 12.368081 9.011035 -9.210862 0
M  V30 31 H 9.400802 5.867571 -13.284517 0
M  V30 32 H 10.309811 5.120854 -11.981543 0
M  V30 33 H 8.688600 4.556997 -12.351508 0
M  V30 34 H 9.478479 5.819379 -9.518846 0
M  V30 35 H 7.987775 6.583826 -9.451485 0
M  V30 36 H 13.286523 7.489579 -2.529266 0
M  V30 37 H 13.775070 9.152305 -2.806871 0
M  V30 38 H 8.808742 6.809242 -6.390657 0
M  V30 39 H 10.112240 5.603142 -6.541288 0
M  V30 40 H 9.375428 5.990202 -4.960986 0
M  V30 41 H 13.048759 8.884692 -6.846294 0
M  V30 42 H 12.073351 10.332490 -6.880082 0
M  V30 43 H 8.099843 5.023121 -9.991142 0
M  V30 END ATOM
M  V30 BEGIN BOND
M  V30 1 1 3 1
M  V30 2 1 6 4
M  V30 3 1 8 4
M  V30 4 1 9 6
M  V30 5 2 9 7
M  V30 6 1 10 1
M  V30 7 1 11 1
M  V30 8 1 12 2
M  V30 9 1 12 7
M  V30 10 1 13 5
M  V30 11 1 13 12
M  V30 12 1 14 9
M  V30 13 1 15 2
M  V30 14 1 15 6
M  V30 15 1 16 3
M  V30 16 1 16 8
M  V30 17 1 1 17 CFG=3
M  V30 18 1 18 2
M  V30 19 1 19 2
M  V30 20 1 20 3
M  V30 21 1 21 3
M  V30 22 1 22 4
M  V30 23 1 23 4
M  V30 24 1 24 5
M  V30 25 1 25 5
M  V30 26 1 26 5
M  V30 27 1 6 27 CFG=3
M  V30 28 1 28 7
M  V30 29 1 29 8
M  V30 30 1 30 8
M  V30 31 1 31 10
M  V30 32 1 32 10
M  V30 33 1 33 10
M  V30 34 1 34 11
M  V30 35 1 35 11
M  V30 36 1 36 13
M  V30 37 1 37 13
M  V30 38 1 38 14
M  V30 39 1 39 14
M  V30 40 1 40 14
M  V30 41 1 41 15
M  V30 42 1 42 15
M  V30 43 1 43 11
M  V30 END BOND
M  V30 END CTAB
M  END
>  <i_epik_Tot_Q>  (1) 
1

>  <i_epik_Tot_abs_Q>  (1) 
1

>  <i_i_glide_confnum>  (1) 
58

>  <i_i_glide_lignum>  (1) 
23

>  <i_i_glide_posenum>  (1) 
371

>  <i_i_glide_rotatable_bonds>  (1) 
6

>  <i_lp_mmshare_version>  (1) 
72125

>  <i_m_source_file_index>  (1) 
12

>  <i_f3d_flags>  (1) 
0

>  <num_sample>  (1) 
100

>  <b_lp_Chiralities_Consistent>  (1) 
1

>  <r_epik_Charging_Adjusted_Penalty>  (1) 
1.9642440234168317

>  <r_epik_Ionization_Penalty>  (1) 
0.98935146828666498

>  <r_epik_Ionization_Penalty_Charging>  (1) 
0.98585147642448279

>  <r_epik_Ionization_Penalty_Neutral>  (1) 
0.0034999918621821963

>  <r_epik_State_Penalty>  (1) 
0.9783925469923489

>  <r_glide_ring_energy>  (1) 
0

>  <r_i_docking_score>  (1) 
-5.5187265826033878

>  <r_i_glide_ecoul>  (1) 
-7.7169932873790668

>  <r_i_glide_eff_state_penalty>  (1) 
0.9783925469923489

>  <r_i_glide_einternal>  (1) 
4.8832067451859871

>  <r_i_glide_emodel>  (1) 
-41.151821944506331

>  <r_i_glide_emodel_strain>  (1) 
0.64668329856351114

>  <r_i_glide_energy>  (1) 
-27.704049804695408

>  <r_i_glide_erotb>  (1) 
1.1721704271113136

>  <r_i_glide_esite>  (1) 
-0.092962135038617777

>  <r_i_glide_evdw>  (1) 
-19.987056517316343

>  <r_i_glide_gscore>  (1) 
-6.4971191295957365

>  <r_i_glide_gscore_strain>  (1) 
0

>  <r_i_glide_hbond>  (1) 
-0.20000000000000001

>  <r_i_glide_ligand_efficiency>  (1) 
-0.34492041141271174

>  <r_i_glide_ligand_efficiency_ln>  (1) 
-1.4628487197848927

>  <r_i_glide_ligand_efficiency_sa>  (1) 
-0.8691449737545508

>  <r_i_glide_lipo>  (1) 
-2.3987381024120658

>  <r_i_glide_metal>  (1) 
-0

>  <r_i_glide_rewards>  (1) 
-2.8206875002836895

>  <r_lp_Energy>  (1) 
12.336442

>  <s_epik_Chemistry_Notes>  (1) 
This compound has an imine and may undergo hydrolysis.

>  <s_epik_cmdline>  (1) 
J2VwaWtfcHl0aG9uJywgJy1waHQnLCAnMS4wJywgJy1waCcsICc3LjQnLCAnLXRuJywgJzgnLCAnLW1hJywgJzUwMCcsICctaW1hZScsICc8aW5maWxlLm1hZT4nLCAnLW9tYWUnLCAnPG91dGZpbGUubWFlPic=

>  <s_epik_input>  (1) 
W0NIM11bQ0BASF0oW05IMl0pW0NIMl1TW0NIMl1bQ0gyXVtDQEhdMUMoW0NIM10pPVtDSF1OKFtDSDJdW0NIMl0xKVtDSDJdW0NIM10=

>  <s_glide_docking_method>  (1) 
confgen

>  <s_i_glide_gridfile>  (1) 
gpcr_drd2_6luq_protein_autoprepared_prepared

>  <s_lp_Force_Field>  (1) 
S-OPLS

>  <s_lp_Variant>  (1) 
DiffSBDD_11-3

>  <s_m_source_file>  (1) 
generated_generic_title2_ligand_DiffSBDD_2026-06-23_prepared.sdf

>  <GenAI_Model>  (1) 
DiffSBDD

>  <Protein>  (1) 
generic_title2

$$$$
DiffSBDD_12
     RDKit          3D

  0  0  0  0  0  0  0  0  0  0999 V3000
M  V30 BEGIN CTAB
M  V30 COUNTS 20 21 0 0 1
M  V30 BEGIN ATOM
M  V30 1 C 11.375410 9.990211 -4.576540 0
M  V30 2 C 12.687706 9.284141 -4.406785 0
M  V30 3 C 10.384522 7.164384 -7.477804 0
M  V30 4 N 11.128681 8.601399 -9.273362 0 CHG=1
M  V30 5 C 11.100271 8.224486 -7.880283 0
M  V30 6 C 10.360747 6.781463 -6.098775 0
M  V30 7 O 10.506736 7.913651 -10.076979 0 CHG=-1
M  V30 8 C 11.697136 8.792590 -5.446837 0
M  V30 9 C 11.940033 9.092560 -6.939215 0
M  V30 10 O 11.775506 9.590227 -9.585024 0
M  V30 11 C 10.975499 7.515105 -5.164775 0
M  V30 12 H 11.375271 10.969797 -5.052366 0
M  V30 13 H 10.655219 9.883591 -3.770515 0
M  V30 14 H 12.825655 8.690372 -3.503948 0
M  V30 15 H 13.584461 9.782774 -4.768556 0
M  V30 16 H 9.823816 6.585630 -8.197431 0
M  V30 17 H 9.844730 5.883656 -5.809652 0
M  V30 18 H 12.987999 8.894289 -7.165876 0
M  V30 19 H 11.775020 10.150096 -7.135130 0
M  V30 20 H 10.953565 7.189421 -4.136525 0
M  V30 END ATOM
M  V30 BEGIN BOND
M  V30 1 1 2 1
M  V30 2 2 5 3
M  V30 3 1 5 4
M  V30 4 1 6 3
M  V30 5 1 7 4
M  V30 6 1 8 1
M  V30 7 1 8 2
M  V30 8 1 9 5
M  V30 9 1 9 8
M  V30 10 2 10 4
M  V30 11 2 11 6
M  V30 12 1 11 8
M  V30 13 1 12 1
M  V30 14 1 13 1
M  V30 15 1 14 2
M  V30 16 1 15 2
M  V30 17 1 16 3
M  V30 18 1 17 6
M  V30 19 1 18 9
M  V30 20 1 19 9
M  V30 21 1 20 11
M  V30 END BOND
M  V30 END CTAB
M  END
>  <i_epik_Tot_Q>  (1) 
0

>  <i_epik_Tot_abs_Q>  (1) 
2

>  <i_i_glide_confnum>  (1) 
1

>  <i_i_glide_lignum>  (1) 
24

>  <i_i_glide_posenum>  (1) 
119

>  <i_i_glide_rotatable_bonds>  (1) 
1

>  <i_lp_mmshare_version>  (1) 
72125

>  <i_m_source_file_index>  (1) 
13

>  <i_f3d_flags>  (1) 
0

>  <num_sample>  (1) 
100

>  <b_lp_Chiralities_Consistent>  (1) 
1

>  <r_epik_Charging_Adjusted_Penalty>  (1) 
0

>  <r_epik_Ionization_Penalty>  (1) 
1.9453475992489072e-06

>  <r_epik_Ionization_Penalty_Charging>  (1) 
0

>  <r_epik_Ionization_Penalty_Neutral>  (1) 
1.9453475992489072e-06

>  <r_epik_State_Penalty>  (1) 
-0

>  <r_glide_ring_energy>  (1) 
0

>  <r_i_docking_score>  (1) 
-5.5119756846058996

>  <r_i_glide_ecoul>  (1) 
0.23178698976216694

>  <r_i_glide_eff_state_penalty>  (1) 
-0

>  <r_i_glide_einternal>  (1) 
0.015126081347851539

>  <r_i_glide_emodel>  (1) 
-24.768119591173345

>  <r_i_glide_emodel_strain>  (1) 
0.053766263757349719

>  <r_i_glide_energy>  (1) 
-18.137052574008084

>  <r_i_glide_erotb>  (1) 
0

>  <r_i_glide_esite>  (1) 
-0.034980241287294808

>  <r_i_glide_evdw>  (1) 
-18.368839563770251

>  <r_i_glide_gscore>  (1) 
-5.5119756846058996

>  <r_i_glide_gscore_strain>  (1) 
0

>  <r_i_glide_hbond>  (1) 
0

>  <r_i_glide_ligand_efficiency>  (1) 
-0.50108869860053629

>  <r_i_glide_ligand_efficiency_ln>  (1) 
-1.622173505090537

>  <r_i_glide_ligand_efficiency_sa>  (1) 
-1.1144112892968814

>  <r_i_glide_lipo>  (1) 
-1.7349044688668642

>  <r_i_glide_metal>  (1) 
-0

>  <r_i_glide_rewards>  (1) 
-2.8584170447275534

>  <r_lp_Energy>  (1) 
16.789680999999998

>  <r_lp_tautomer_probability>  (1) 
1

>  <s_epik_cmdline>  (1) 
J2VwaWtfcHl0aG9uJywgJy1waHQnLCAnMS4wJywgJy1waCcsICc3LjQnLCAnLXRuJywgJzgnLCAnLW1hJywgJzUwMCcsICctaW1hZScsICc8aW5maWxlLm1hZT4nLCAnLW9tYWUnLCAnPG91dGZpbGUubWFlPic=

>  <s_epik_input>  (1) 
W0NIMl0xW0NIMl1DMTJbQ0gyXUMoW04rXShbTy1dKT1PKT1bQ0hdW0NIXT1bQ0hdMg==

>  <s_glide_docking_method>  (1) 
confgen

>  <s_i_glide_gridfile>  (1) 
gpcr_drd2_6luq_protein_autoprepared_prepared

>  <s_lp_Force_Field>  (1) 
S-OPLS

>  <s_lp_Variant>  (1) 
DiffSBDD_12-1

>  <s_m_source_file>  (1) 
generated_generic_title2_ligand_DiffSBDD_2026-06-23_prepared.sdf

>  <GenAI_Model>  (1) 
DiffSBDD

>  <Protein>  (1) 
generic_title2

$$$$
DiffSBDD_63
     RDKit          3D

  0  0  0  0  0  0  0  0  0  0999 V3000
M  V30 BEGIN CTAB
M  V30 COUNTS 47 48 0 0 1
M  V30 BEGIN ATOM
M  V30 1 C 7.797232 0.961653 -16.655441 0
M  V30 2 C 7.398989 2.556924 -14.363989 0
M  V30 3 C 10.951899 8.217051 -6.677787 0
M  V30 4 C 10.433569 7.024986 -6.277499 0
M  V30 5 C 7.774765 3.154883 -15.586525 0
M  V30 6 C 8.994497 6.874636 -10.844770 0
M  V30 7 C 12.417676 9.190260 -3.376743 0
M  V30 8 F 7.992626 0.195241 -17.754327 0
M  V30 9 C 8.324569 5.229384 -12.443567 0
M  V30 10 C 9.789591 8.285568 -8.913749 0
M  V30 11 C 11.690559 9.066432 -5.716624 0
M  V30 12 O 12.174414 10.164380 -5.980465 0
M  V30 13 N 8.447159 3.990232 -12.653581 0
M  V30 14 C 7.235793 7.126048 -13.772091 0
M  V30 15 S 12.574536 7.992399 -2.038953 0
M  V30 16 C 7.974390 2.356977 -16.729685 0
M  V30 17 F 6.856199 0.573734 -13.125718 0
M  V30 18 C 7.418720 0.362993 -15.438973 0
M  V30 19 S 5.971120 4.734286 -13.436956 0
M  V30 20 C 7.051945 5.993237 -12.748658 0 CFG=1
M  V30 21 O 9.339689 6.010952 -11.927575 0
M  V30 22 C 10.209638 7.269894 -9.983375 0
M  V30 23 N 10.819430 8.713549 -7.971218 0
M  V30 24 N 11.775467 8.518879 -4.493056 0
M  V30 25 C 7.195400 3.416703 -13.124544 0 CFG=1
M  V30 26 C 7.219141 1.156251 -14.294008 0
M  V30 27 H 7.918178 4.224463 -15.644128 0
M  V30 28 H 8.525294 7.778656 -11.231296 0
M  V30 29 H 8.274697 6.380981 -10.190883 0
M  V30 30 H 13.399116 9.589853 -3.641490 0
M  V30 31 H 11.788524 10.008844 -3.031478 0
M  V30 32 H 9.385716 9.174844 -9.399022 0
M  V30 33 H 8.975018 7.866112 -8.336651 0
M  V30 34 H 7.775626 7.974921 -13.356429 0
M  V30 35 H 6.267884 7.498853 -14.107651 0
M  V30 36 H 7.774799 6.778207 -14.654789 0
M  V30 37 H 11.266383 7.897942 -1.786413 0
M  V30 38 H 8.266299 2.813696 -17.663819 0
M  V30 39 H 7.283477 -0.707417 -15.384014 0
M  V30 40 H 6.592619 6.357157 -11.829888 0
M  V30 41 H 11.013348 7.666113 -10.603243 0
M  V30 42 H 10.585581 6.388493 -9.482148 0
M  V30 43 H 11.365126 7.613116 -4.328855 0
M  V30 44 H 6.773356 2.792263 -12.341757 0
M  V30 45 H 9.890045 6.398991 -6.969575 0
M  V30 46 H 10.542577 6.659722 -5.268498 0
M  V30 47 H 11.252332 9.603769 -8.172899 0
M  V30 END ATOM
M  V30 BEGIN BOND
M  V30 1 2 4 3
M  V30 2 1 5 2
M  V30 3 1 8 1
M  V30 4 1 11 3
M  V30 5 2 12 11
M  V30 6 2 13 9
M  V30 7 1 15 7
M  V30 8 1 16 1
M  V30 9 2 16 5
M  V30 10 2 18 1
M  V30 11 1 20 9
M  V30 12 1 20 14
M  V30 13 1 20 19
M  V30 14 1 21 6
M  V30 15 1 21 9
M  V30 16 1 22 6
M  V30 17 1 22 10
M  V30 18 1 23 3
M  V30 19 1 23 10
M  V30 20 1 24 7
M  V30 21 1 24 11
M  V30 22 1 25 2
M  V30 23 1 25 13
M  V30 24 1 25 19
M  V30 25 2 26 2
M  V30 26 1 26 17
M  V30 27 1 26 18
M  V30 28 1 27 5
M  V30 29 1 28 6
M  V30 30 1 29 6
M  V30 31 1 30 7
M  V30 32 1 31 7
M  V30 33 1 32 10
M  V30 34 1 33 10
M  V30 35 1 34 14
M  V30 36 1 35 14
M  V30 37 1 36 14
M  V30 38 1 37 15
M  V30 39 1 38 16
M  V30 40 1 39 18
M  V30 41 1 20 40 CFG=1
M  V30 42 1 41 22
M  V30 43 1 42 22
M  V30 44 1 43 24
M  V30 45 1 25 44 CFG=1
M  V30 46 1 45 4
M  V30 47 1 46 4
M  V30 48 1 47 23
M  V30 END BOND
M  V30 END CTAB
M  END
>  <i_epik_Tot_Q>  (1) 
0

>  <i_epik_Tot_abs_Q>  (1) 
0

>  <i_i_glide_confnum>  (1) 
412

>  <i_i_glide_lignum>  (1) 
100

>  <i_i_glide_posenum>  (1) 
371

>  <i_i_glide_rotatable_bonds>  (1) 
11

>  <i_lp_mmshare_version>  (1) 
72125

>  <i_m_source_file_index>  (1) 
64

>  <i_f3d_flags>  (1) 
0

>  <num_sample>  (1) 
100

>  <b_lp_Chiralities_Consistent>  (1) 
1

>  <r_epik_Charging_Adjusted_Penalty>  (1) 
0.013849271164821807

>  <r_epik_Ionization_Penalty>  (1) 
0.12391676861929035

>  <r_epik_Ionization_Penalty_Charging>  (1) 
0.013849271164821807

>  <r_epik_Ionization_Penalty_Neutral>  (1) 
0.11006749745446855

>  <r_epik_State_Penalty>  (1) 
-0

>  <r_glide_ring_energy>  (1) 
0

>  <r_i_docking_score>  (1) 
-5.5020059958364982

>  <r_i_glide_ecoul>  (1) 
-1.8908131908059018

>  <r_i_glide_eff_state_penalty>  (1) 
-0

>  <r_i_glide_einternal>  (1) 
4.5292122086050561

>  <r_i_glide_emodel>  (1) 
-56.647304596074058

>  <r_i_glide_emodel_strain>  (1) 
1.0367303159310595

>  <r_i_glide_energy>  (1) 
-45.595946072897007

>  <r_i_glide_erotb>  (1) 
1.2167697096945405

>  <r_i_glide_esite>  (1) 
0

>  <r_i_glide_evdw>  (1) 
-43.705132882091107

>  <r_i_glide_gscore>  (1) 
-5.5020059958364982

>  <r_i_glide_gscore_strain>  (1) 
0

>  <r_i_glide_hbond>  (1) 
0

>  <r_i_glide_ligand_efficiency>  (1) 
-0.21161561522448069

>  <r_i_glide_ligand_efficiency_ln>  (1) 
-1.2921280545680154

>  <r_i_glide_ligand_efficiency_sa>  (1) 
-0.62691042811613107

>  <r_i_glide_lipo>  (1) 
-1.8991309996636556

>  <r_i_glide_metal>  (1) 
-0

>  <r_i_glide_rewards>  (1) 
-2.3507660831419424

>  <r_lp_Energy>  (1) 
18.833002999999998

>  <r_lp_tautomer_probability>  (1) 
1

>  <s_epik_Chemistry_Notes>  (1) 
This compound has an imine and may undergo hydrolysis. This compound contains an acetal/aminal-like group ( X-CH(R)-Y where X, Y are N, S, or O) that may be acid/base labile, releasing an aldehyde.

>  <s_epik_cmdline>  (1) 
J2VwaWtfcHl0aG9uJywgJy1waHQnLCAnMS4wJywgJy1waCcsICc3LjQnLCAnLXRuJywgJzgnLCAnLW1hJywgJzUwMCcsICctaW1hZScsICc8aW5maWxlLm1hZT4nLCAnLW9tYWUnLCAnPG91dGZpbGUubWFlPic=

>  <s_epik_input>  (1) 
RmMxW2NIXVtjSF1jKGMoRilbY0hdMSlbQ0BIXShTW0NAQEhdMltDSDNdKU49QzJPW0NIMl1bQ0gyXVtDSDJdW05IXUMoPVtDSDJdKUMoPU8pW05IXVtDSDJdW1NIXQ==

>  <s_glide_docking_method>  (1) 
confgen

>  <s_i_glide_gridfile>  (1) 
gpcr_drd2_6luq_protein_autoprepared_prepared

>  <s_lp_Force_Field>  (1) 
S-OPLS

>  <s_lp_Variant>  (1) 
DiffSBDD_63-1

>  <s_m_source_file>  (1) 
generated_generic_title2_ligand_DiffSBDD_2026-06-23_prepared.sdf

>  <GenAI_Model>  (1) 
DiffSBDD

>  <Protein>  (1) 
generic_title2

$$$$
DiffSBDD_44
     RDKit          3D

  0  0  0  0  0  0  0  0  0  0999 V3000
M  V30 BEGIN CTAB
M  V30 COUNTS 46 48 0 0 1
M  V30 BEGIN ATOM
M  V30 1 C 8.668577 3.302137 -12.369235 0 CFG=2
M  V30 2 C 9.773788 8.397383 -8.227158 0
M  V30 3 C 10.676949 8.195161 -5.841294 0
M  V30 4 C 7.724964 3.935552 -13.297121 0 CFG=1
M  V30 5 O 11.997167 7.587296 -8.346304 0
M  V30 6 C 12.265677 7.309664 -3.676060 0
M  V30 7 C 10.991950 6.828736 -5.706170 0
M  V30 8 C 9.068741 5.840789 -11.843076 0
M  V30 9 O 10.957815 10.446545 -5.031190 0
M  V30 10 O 8.672560 3.999976 -16.986244 0
M  V30 11 C 9.719896 8.644111 -6.891063 0
M  V30 12 C 11.209449 9.121856 -4.901764 0
M  V30 13 O 8.533607 5.590061 -14.822966 0
M  V30 14 C 8.082219 3.452074 -15.824623 0
M  V30 15 C 10.668207 7.191201 -10.302830 0
M  V30 16 N 6.141705 5.990290 -11.185017 0 CHG=1
M  V30 17 C 9.565271 6.101165 -10.398247 0
M  V30 18 O 7.759416 2.502270 -13.156093 0
M  V30 19 C 8.083516 4.664747 -11.996947 0 CFG=2
M  V30 20 C 8.154026 4.434183 -14.650975 0
M  V30 21 C 11.775410 6.390191 -4.620314 0
M  V30 22 C 10.896304 7.713960 -8.872443 0
M  V30 23 C 6.912283 4.743667 -11.023287 0
M  V30 24 C 12.002911 8.674434 -3.830138 0
M  V30 25 H 9.707302 3.253491 -12.690509 0
M  V30 26 H 8.973663 8.728942 -8.862006 0
M  V30 27 H 12.865964 6.964569 -2.846802 0
M  V30 28 H 10.592813 6.109273 -6.407514 0
M  V30 29 H 8.598835 6.744100 -12.232374 0
M  V30 30 H 9.932608 5.657282 -12.484069 0
M  V30 31 H 10.577872 10.660840 -5.868815 0
M  V30 32 H 8.290508 4.852126 -17.133847 0
M  V30 33 H 8.882034 9.190254 -6.529847 0
M  V30 34 H 7.037617 3.218468 -16.025758 0
M  V30 35 H 8.575396 2.516183 -15.571970 0
M  V30 36 H 10.377986 8.046818 -10.911565 0
M  V30 37 H 11.605681 6.830423 -10.724090 0
M  V30 38 H 5.209990 5.859605 -10.821586 0
M  V30 39 H 6.096311 6.275100 -12.151180 0
M  V30 40 H 8.715725 6.390915 -9.780548 0
M  V30 41 H 9.923078 5.169325 -9.960729 0
M  V30 42 H 11.995860 5.344590 -4.508551 0
M  V30 43 H 6.237805 3.904756 -11.207775 0
M  V30 44 H 7.257084 4.637870 -9.994380 0
M  V30 45 H 12.397331 9.383018 -3.116269 0
M  V30 46 H 6.575494 6.729059 -10.619456 0
M  V30 END ATOM
M  V30 BEGIN BOND
M  V30 1 1 4 1
M  V30 2 2 7 3
M  V30 3 2 11 2
M  V30 4 1 11 3
M  V30 5 1 12 3
M  V30 6 1 12 9
M  V30 7 1 14 10
M  V30 8 1 17 8
M  V30 9 1 17 15
M  V30 10 1 18 1
M  V30 11 1 18 4
M  V30 12 1 19 1
M  V30 13 1 19 4
M  V30 14 1 19 8 CFG=3
M  V30 15 1 4 20 CFG=3
M  V30 16 2 20 13
M  V30 17 1 20 14
M  V30 18 2 21 6
M  V30 19 1 21 7
M  V30 20 1 22 2
M  V30 21 2 22 5
M  V30 22 1 22 15
M  V30 23 1 23 16
M  V30 24 1 23 19
M  V30 25 1 24 6
M  V30 26 2 24 12
M  V30 27 1 1 25 CFG=3
M  V30 28 1 26 2
M  V30 29 1 27 6
M  V30 30 1 28 7
M  V30 31 1 29 8
M  V30 32 1 30 8
M  V30 33 1 31 9
M  V30 34 1 32 10
M  V30 35 1 33 11
M  V30 36 1 34 14
M  V30 37 1 35 14
M  V30 38 1 36 15
M  V30 39 1 37 15
M  V30 40 1 38 16
M  V30 41 1 39 16
M  V30 42 1 40 17
M  V30 43 1 41 17
M  V30 44 1 42 21
M  V30 45 1 43 23
M  V30 46 1 44 23
M  V30 47 1 45 24
M  V30 48 1 46 16
M  V30 END BOND
M  V30 END CTAB
M  END
>  <i_epik_Tot_Q>  (1) 
1

>  <i_epik_Tot_abs_Q>  (1) 
1

>  <i_i_glide_confnum>  (1) 
13

>  <i_i_glide_lignum>  (1) 
72

>  <i_i_glide_posenum>  (1) 
348

>  <i_i_glide_rotatable_bonds>  (1) 
11

>  <i_lp_mmshare_version>  (1) 
72125

>  <i_m_source_file_index>  (1) 
45

>  <i_f3d_flags>  (1) 
0

>  <num_sample>  (1) 
100

>  <b_lp_Chiralities_Consistent>  (1) 
1

>  <r_epik_Charging_Adjusted_Penalty>  (1) 
0.0039975134785533318

>  <r_epik_Ionization_Penalty>  (1) 
0.0083805373542956835

>  <r_epik_Ionization_Penalty_Charging>  (1) 
0.0039975134785533318

>  <r_epik_Ionization_Penalty_Neutral>  (1) 
0.0043830238757423508

>  <r_epik_State_Penalty>  (1) 
-0

>  <r_glide_ring_energy>  (1) 
0

>  <r_i_docking_score>  (1) 
-5.5005455127003104

>  <r_i_glide_ecoul>  (1) 
-8.0845684664933035

>  <r_i_glide_eff_state_penalty>  (1) 
-0

>  <r_i_glide_einternal>  (1) 
9.6225580371308652

>  <r_i_glide_emodel>  (1) 
-43.689257480108068

>  <r_i_glide_emodel_strain>  (1) 
3.1766793891409151

>  <r_i_glide_energy>  (1) 
-32.663671458863185

>  <r_i_glide_erotb>  (1) 
1.3638172886518747

>  <r_i_glide_esite>  (1) 
-0.093373979215719979

>  <r_i_glide_evdw>  (1) 
-24.579102992369879

>  <r_i_glide_gscore>  (1) 
-5.5005455127003104

>  <r_i_glide_gscore_strain>  (1) 
0

>  <r_i_glide_hbond>  (1) 
-0.20000000000000001

>  <r_i_glide_ligand_efficiency>  (1) 
-0.22918939636251293

>  <r_i_glide_ligand_efficiency_ln>  (1) 
-1.3165329447759242

>  <r_i_glide_ligand_efficiency_sa>  (1) 
-0.6610966168456972

>  <r_i_glide_lipo>  (1) 
-2.1665854363867108

>  <r_i_glide_metal>  (1) 
-0

>  <r_i_glide_rewards>  (1) 
-1.9627629661572665

>  <r_lp_Energy>  (1) 
27.234783

>  <r_lp_tautomer_probability>  (1) 
1

>  <s_epik_cmdline>  (1) 
J2VwaWtfcHl0aG9uJywgJy1waHQnLCAnMS4wJywgJy1waCcsICc3LjQnLCAnLXRuJywgJzgnLCAnLW1hJywgJzUwMCcsICctaW1hZScsICc8aW5maWxlLm1hZT4nLCAnLW9tYWUnLCAnPG91dGZpbGUubWFlPic=

>  <s_epik_input>  (1) 
W09IXVtDSDJdQyg9TylbQ0BdMTJbQ0BIXShPMSlbQ0BAXTIoW0NIMl1bTkgyXSlbQ0gyXVtDSDJdW0NIMl1DKD1PKS9bQ0hdPVtDSF1cYzNbY0hdW2NIXVtjSF1bY0hdYzNbT0hd

>  <s_glide_docking_method>  (1) 
confgen

>  <s_i_glide_gridfile>  (1) 
gpcr_drd2_6luq_protein_autoprepared_prepared

>  <s_lp_Force_Field>  (1) 
S-OPLS

>  <s_lp_Variant>  (1) 
DiffSBDD_44-2

>  <s_m_source_file>  (1) 
generated_generic_title2_ligand_DiffSBDD_2026-06-23_prepared.sdf

>  <GenAI_Model>  (1) 
DiffSBDD

>  <Protein>  (1) 
generic_title2

$$$$
DiffSBDD_49
     RDKit          3D

  0  0  0  0  0  0  0  0  0  0999 V3000
M  V30 BEGIN CTAB
M  V30 COUNTS 60 61 0 0 1
M  V30 BEGIN ATOM
M  V30 1 C 7.826302 5.990217 -18.367089 0
M  V30 2 C 6.503197 6.307345 -17.982558 0
M  V30 3 C 5.440172 6.064507 -18.877438 0
M  V30 4 C 11.375422 7.487515 -4.312720 0
M  V30 5 N 8.707565 4.923146 -11.728525 0
M  V30 6 C 9.456072 6.029144 -8.125182 0
M  V30 7 O 8.665354 5.990196 -7.185556 0
M  V30 8 F 4.175302 6.390227 -18.525018 0
M  V30 9 C 7.525947 5.042542 -15.388399 0
M  V30 10 C 6.660270 7.043824 -14.145844 0
M  V30 11 O 12.344791 8.437546 -7.474382 0
M  V30 12 C 5.694907 5.492356 -20.143377 0
M  V30 13 C 7.018270 5.171370 -20.516424 0
M  V30 14 C 6.216608 6.939254 -16.614265 0
M  V30 15 C 12.673470 8.080563 -3.758335 0
M  V30 16 C 9.235463 5.117042 -9.336145 0
M  V30 17 C 9.201946 5.841054 -10.698344 0
M  V30 18 S 11.045536 7.844512 -7.126960 0
M  V30 19 C 4.547172 5.232010 -21.103394 0
M  V30 20 O 9.775409 3.990193 -11.988456 0
M  V30 21 C 6.180958 6.040525 -11.930488 0
M  V30 22 N 10.570245 6.789176 -8.259168 0 CHG=-1
M  V30 23 N 5.375050 5.610242 -11.226155 0
M  V30 24 C 8.338255 5.512919 -13.018820 0 CFG=2
M  V30 25 F 4.671627 4.066913 -21.736353 0
M  V30 26 C 7.228294 6.565814 -12.819429 0 CFG=1
M  V30 27 O 9.989494 8.790227 -6.734683 0
M  V30 28 C 6.794918 6.380512 -15.307987 0
M  V30 29 C 8.079243 5.421944 -19.628856 0
M  V30 30 F 7.270530 4.627674 -21.731414 0
M  V30 31 C 12.438638 8.797402 -2.424002 0
M  V30 32 C 7.817165 4.436221 -14.003359 0
M  V30 33 C 11.356026 6.745991 -5.657366 0
M  V30 34 H 8.648011 6.186528 -17.699202 0
M  V30 35 H 10.677701 8.313105 -4.405148 0
M  V30 36 H 10.978620 6.791490 -3.567863 0
M  V30 37 H 8.485021 5.185916 -15.878592 0
M  V30 38 H 6.948729 4.334846 -15.983045 0
M  V30 39 H 6.129699 7.981122 -14.133256 0
M  V30 40 H 5.138464 6.964318 -16.459965 0
M  V30 41 H 6.508401 7.988414 -16.678513 0
M  V30 42 H 13.397112 7.287266 -3.585044 0
M  V30 43 H 13.101931 8.790226 -4.466324 0
M  V30 44 H 8.273607 4.624543 -9.188246 0
M  V30 45 H 9.981196 4.324371 -9.319872 0
M  V30 46 H 10.177750 6.239101 -10.970807 0
M  V30 47 H 8.544213 6.701797 -10.595819 0
M  V30 48 H 3.598773 5.189331 -20.573432 0
M  V30 49 H 4.492492 6.018572 -21.856015 0
M  V30 50 H 10.442524 4.526007 -12.394445 0
M  V30 51 H 9.219840 5.991005 -13.447771 0
M  V30 52 H 7.642239 7.444939 -12.325978 0
M  V30 53 H 9.091298 5.180353 -19.918177 0
M  V30 54 H 13.375354 9.176356 -2.020768 0
M  V30 55 H 11.762870 9.645882 -2.540187 0
M  V30 56 H 12.007894 8.123981 -1.681648 0
M  V30 57 H 8.527549 3.619678 -14.128194 0
M  V30 58 H 6.908916 3.981285 -13.603689 0
M  V30 59 H 10.499258 6.080908 -5.590058 0
M  V30 60 H 12.190555 6.082711 -5.841556 0
M  V30 END ATOM
M  V30 BEGIN BOND
M  V30 1 1 2 1
M  V30 2 2 3 2
M  V30 3 2 7 6
M  V30 4 1 8 3
M  V30 5 1 12 3
M  V30 6 2 13 12
M  V30 7 1 14 2
M  V30 8 1 15 4
M  V30 9 1 16 6
M  V30 10 1 17 5
M  V30 11 1 17 16
M  V30 12 2 18 11
M  V30 13 1 19 12
M  V30 14 1 20 5
M  V30 15 1 22 6
M  V30 16 1 22 18
M  V30 17 3 23 21
M  V30 18 1 24 5
M  V30 19 1 25 19
M  V30 20 1 26 10
M  V30 21 1 26 21
M  V30 22 1 26 24
M  V30 23 2 27 18
M  V30 24 1 28 9
M  V30 25 2 28 10
M  V30 26 1 28 14
M  V30 27 2 29 1
M  V30 28 1 29 13
M  V30 29 1 30 13
M  V30 30 1 31 15
M  V30 31 1 32 9
M  V30 32 1 32 24
M  V30 33 1 33 4
M  V30 34 1 33 18
M  V30 35 1 34 1
M  V30 36 1 35 4
M  V30 37 1 36 4
M  V30 38 1 37 9
M  V30 39 1 38 9
M  V30 40 1 39 10
M  V30 41 1 40 14
M  V30 42 1 41 14
M  V30 43 1 42 15
M  V30 44 1 43 15
M  V30 45 1 44 16
M  V30 46 1 45 16
M  V30 47 1 46 17
M  V30 48 1 47 17
M  V30 49 1 48 19
M  V30 50 1 49 19
M  V30 51 1 50 20
M  V30 52 1 24 51 CFG=3
M  V30 53 1 26 52 CFG=1
M  V30 54 1 53 29
M  V30 55 1 54 31
M  V30 56 1 55 31
M  V30 57 1 56 31
M  V30 58 1 57 32
M  V30 59 1 58 32
M  V30 60 1 59 33
M  V30 61 1 60 33
M  V30 END BOND
M  V30 END CTAB
M  END
>  <i_epik_Tot_Q>  (1) 
-1

>  <i_epik_Tot_abs_Q>  (1) 
1

>  <i_i_glide_confnum>  (1) 
3454

>  <i_i_glide_lignum>  (1) 
79

>  <i_i_glide_posenum>  (1) 
31

>  <i_i_glide_rotatable_bonds>  (1) 
13

>  <i_lp_mmshare_version>  (1) 
72125

>  <i_m_source_file_index>  (1) 
50

>  <i_f3d_flags>  (1) 
0

>  <num_sample>  (1) 
100

>  <b_lp_Chiralities_Consistent>  (1) 
1

>  <r_epik_Charging_Adjusted_Penalty>  (1) 
0.026401540153883577

>  <r_epik_Ionization_Penalty>  (1) 
0.013342793293924158

>  <r_epik_Ionization_Penalty_Charging>  (1) 
0.013200770076941797

>  <r_epik_Ionization_Penalty_Neutral>  (1) 
0.00014202321698236043

>  <r_epik_State_Penalty>  (1) 
0.01320077007694178

>  <r_glide_ring_energy>  (1) 
0

>  <r_i_docking_score>  (1) 
-5.4984240125393251

>  <r_i_glide_ecoul>  (1) 
-2.4856227552072299

>  <r_i_glide_eff_state_penalty>  (1) 
0.01320077007694178

>  <r_i_glide_einternal>  (1) 
13.838414377076406

>  <r_i_glide_emodel>  (1) 
-44.844843118872788

>  <r_i_glide_emodel_strain>  (1) 
2.6926674029877375

>  <r_i_glide_energy>  (1) 
-40.647830727174529

>  <r_i_glide_erotb>  (1) 
0.85852740142568074

>  <r_i_glide_esite>  (1) 
-0.1244442747663001

>  <r_i_glide_evdw>  (1) 
-38.162207971967298

>  <r_i_glide_gscore>  (1) 
-5.5116247826162672

>  <r_i_glide_gscore_strain>  (1) 
0

>  <r_i_glide_hbond>  (1) 
-0.1378959099902419

>  <r_i_glide_ligand_efficiency>  (1) 
-0.16661890947088864

>  <r_i_glide_ligand_efficiency_ln>  (1) 
-1.222821031072854

>  <r_i_glide_ligand_efficiency_sa>  (1) 
-0.53443587215434207

>  <r_i_glide_lipo>  (1) 
-2.4738087065004488

>  <r_i_glide_metal>  (1) 
-0

>  <r_i_glide_rewards>  (1) 
-1.3530494809055078

>  <r_lp_Energy>  (1) 
33.979248999999996

>  <s_epik_Chemistry_Notes>  (1) 
This compound has a N-S or N-O group and may undergo hydrolysis at high or low pH.

>  <s_epik_cmdline>  (1) 
J2VwaWtfcHl0aG9uJywgJy1waHQnLCAnMS4wJywgJy1waCcsICc3LjQnLCAnLXRuJywgJzgnLCAnLW1hJywgJzUwMCcsICctaW1hZScsICc8aW5maWxlLm1hZT4nLCAnLW9tYWUnLCAnPG91dGZpbGUubWFlPic=

>  <s_epik_input>  (1) 
RmMxYyhbQ0gyXUYpYyhGKVtjSF1bY0hdYzFbQ0gyXUMoW0NIMl1bQ0gyXTIpPVtDSF1bQ0BASF0oQyNOKVtDQEhdMk4oW09IXSlbQ0gyXVtDSDJdQyg9TylbTkhdUyg9TykoPU8pW0NIMl1bQ0gyXVtDSDJdW0NIM10=

>  <s_glide_docking_method>  (1) 
confgen

>  <s_i_glide_gridfile>  (1) 
gpcr_drd2_6luq_protein_autoprepared_prepared

>  <s_lp_Force_Field>  (1) 
S-OPLS

>  <s_lp_Variant>  (1) 
DiffSBDD_49-1

>  <s_m_source_file>  (1) 
generated_generic_title2_ligand_DiffSBDD_2026-06-23_prepared.sdf

>  <GenAI_Model>  (1) 
DiffSBDD

>  <Protein>  (1) 
generic_title2

$$$$
DiffSBDD_8
     RDKit          3D

  0  0  0  0  0  0  0  0  0  0999 V3000
M  V30 BEGIN CTAB
M  V30 COUNTS 62 64 0 0 1
M  V30 BEGIN ATOM
M  V30 1 C 9.098473 6.567661 -11.595567 0
M  V30 2 O 11.347759 6.790318 -8.068555 0
M  V30 3 C 10.270738 4.169514 -18.820360 0
M  V30 4 N 9.769449 8.101456 -8.887866 0
M  V30 5 C 6.325750 6.121588 -17.226748 0 CFG=2
M  V30 6 C 8.960611 4.954520 -16.437058 0
M  V30 7 N 8.175425 5.590229 -8.358326 0 CHG=1
M  V30 8 C 7.050830 6.964065 -19.948793 0
M  V30 9 C 4.575424 7.402351 -20.343232 0
M  V30 10 O 4.586583 7.590257 -17.321518 0
M  V30 11 C 8.874287 4.331572 -18.812420 0
M  V30 12 C 7.533409 7.857407 -21.101302 0
M  V30 13 O 6.835566 4.897832 -17.669313 0
M  V30 14 S 9.181748 4.790281 -13.648491 0
M  V30 15 C 5.904934 5.930317 -15.751653 0
M  V30 16 C 8.261917 5.366932 -15.119804 0 CFG=2
M  V30 17 N 8.315659 5.636718 -12.414084 0 CFG=1 CHG=1
M  V30 18 F 10.899926 3.791188 -19.957841 0
M  V30 19 C 3.231729 7.205817 -17.211313 0
M  V30 20 C 8.062382 4.831897 -11.218335 0
M  V30 21 C 6.797260 4.924035 -15.032407 0
M  V30 22 C 9.329136 5.432033 -10.590827 0 CFG=2
M  V30 23 C 5.708194 7.395703 -19.309196 0 CFG=1
M  V30 24 N 5.287373 6.616486 -18.122843 0
M  V30 25 C 10.274528 6.892990 -8.649105 0
M  V30 26 C 11.015337 4.403867 -17.653030 0
M  V30 27 C 10.368910 4.793711 -16.466355 0
M  V30 28 C 8.207701 4.731993 -17.636126 0
M  V30 29 C 9.472926 5.633900 -9.052432 0 CFG=1
M  V30 30 H 10.002039 6.953750 -12.070159 0
M  V30 31 H 8.473239 7.373256 -11.208080 0
M  V30 32 H 10.303622 8.922827 -8.644960 0
M  V30 33 H 8.826865 8.197011 -9.263019 0
M  V30 34 H 7.128754 6.849231 -17.235222 0
M  V30 35 H 8.322535 5.640954 -7.359973 0
M  V30 36 H 7.625406 6.414816 -8.618502 0
M  V30 37 H 7.845761 7.001161 -19.207955 0
M  V30 38 H 6.980167 5.934651 -20.295606 0
M  V30 39 H 4.853678 7.899910 -21.269890 0
M  V30 40 H 4.239370 6.395491 -20.594628 0
M  V30 41 H 3.748594 7.990365 -19.958132 0
M  V30 42 H 8.309809 4.154040 -19.715828 0
M  V30 43 H 8.562656 7.611342 -21.364881 0
M  V30 44 H 6.935458 7.726891 -22.002360 0
M  V30 45 H 7.506273 8.911373 -20.825541 0
M  V30 46 H 5.927771 6.901040 -15.253469 0
M  V30 47 H 4.881114 5.590260 -15.705823 0
M  V30 48 H 8.288832 6.450004 -15.076644 0
M  V30 49 H 2.717451 7.919191 -16.565590 0
M  V30 50 H 2.737728 7.228111 -18.176119 0
M  V30 51 H 3.098403 6.212329 -16.785244 0
M  V30 52 H 7.128314 5.134610 -10.740773 0
M  V30 53 H 8.098027 3.755093 -11.387478 0
M  V30 54 H 6.444255 4.884007 -14.003758 0
M  V30 55 H 6.667425 3.907357 -15.406701 0
M  V30 56 H 10.175385 4.848112 -10.955014 0
M  V30 57 H 5.775407 8.435491 -19.002426 0
M  V30 58 H 12.088138 4.281252 -17.666395 0
M  V30 59 H 10.956055 4.967679 -15.577708 0
M  V30 60 H 10.030548 4.776527 -8.670327 0
M  V30 61 H 7.465793 6.074582 -12.741259 0
M  V30 62 H 7.659757 4.753034 -8.584578 0
M  V30 END ATOM
M  V30 BEGIN BOND
M  V30 1 2 11 3
M  V30 2 1 12 8
M  V30 3 1 13 5
M  V30 4 1 15 5
M  V30 5 1 16 6
M  V30 6 1 16 14
M  V30 7 1 17 1
M  V30 8 1 17 14
M  V30 9 1 18 3
M  V30 10 1 19 10
M  V30 11 1 20 17
M  V30 12 1 21 15
M  V30 13 1 21 16
M  V30 14 1 22 1
M  V30 15 1 22 20
M  V30 16 1 23 8
M  V30 17 1 23 9
M  V30 18 1 24 5
M  V30 19 1 24 10
M  V30 20 1 24 23
M  V30 21 2 25 2
M  V30 22 1 25 4
M  V30 23 1 26 3
M  V30 24 1 27 6
M  V30 25 2 27 26
M  V30 26 2 28 6
M  V30 27 1 28 11
M  V30 28 1 28 13
M  V30 29 1 29 7
M  V30 30 1 29 22
M  V30 31 1 29 25
M  V30 32 1 30 1
M  V30 33 1 31 1
M  V30 34 1 32 4
M  V30 35 1 33 4
M  V30 36 1 5 34 CFG=1
M  V30 37 1 35 7
M  V30 38 1 36 7
M  V30 39 1 37 8
M  V30 40 1 38 8
M  V30 41 1 39 9
M  V30 42 1 40 9
M  V30 43 1 41 9
M  V30 44 1 42 11
M  V30 45 1 43 12
M  V30 46 1 44 12
M  V30 47 1 45 12
M  V30 48 1 46 15
M  V30 49 1 47 15
M  V30 50 1 16 48 CFG=1
M  V30 51 1 49 19
M  V30 52 1 50 19
M  V30 53 1 51 19
M  V30 54 1 52 20
M  V30 55 1 53 20
M  V30 56 1 54 21
M  V30 57 1 55 21
M  V30 58 1 22 56 CFG=3
M  V30 59 1 23 57 CFG=1
M  V30 60 1 58 26
M  V30 61 1 59 27
M  V30 62 1 29 60 CFG=1
M  V30 63 1 17 61 CFG=3
M  V30 64 1 62 7
M  V30 END BOND
M  V30 END CTAB
M  END
>  <i_epik_Tot_Q>  (1) 
2

>  <i_epik_Tot_abs_Q>  (1) 
2

>  <i_i_glide_confnum>  (1) 
355

>  <i_i_glide_lignum>  (1) 
13

>  <i_i_glide_posenum>  (1) 
107

>  <i_i_glide_rotatable_bonds>  (1) 
8

>  <i_lp_mmshare_version>  (1) 
72125

>  <i_m_source_file_index>  (1) 
9

>  <i_f3d_flags>  (1) 
0

>  <num_sample>  (1) 
100

>  <b_lp_Chiralities_Consistent>  (1) 
1

>  <r_epik_Charging_Adjusted_Penalty>  (1) 
1.8967099088143093

>  <r_epik_Ionization_Penalty>  (1) 
0.97230814562840162

>  <r_epik_Ionization_Penalty_Charging>  (1) 
0.97206898566559774

>  <r_epik_Ionization_Penalty_Neutral>  (1) 
0.00023915996280393024

>  <r_epik_State_Penalty>  (1) 
0.9246409231487116

>  <r_glide_ring_energy>  (1) 
0.47634900413209158

>  <r_i_docking_score>  (1) 
-5.4980086900169454

>  <r_i_glide_ecoul>  (1) 
-10.681351755823991

>  <r_i_glide_eff_state_penalty>  (1) 
0.9246409231487116

>  <r_i_glide_einternal>  (1) 
12.26361768305744

>  <r_i_glide_emodel>  (1) 
-48.137064972918004

>  <r_i_glide_emodel_strain>  (1) 
3.6819330522915763

>  <r_i_glide_energy>  (1) 
-35.892128221974694

>  <r_i_glide_erotb>  (1) 
0.37853286695913396

>  <r_i_glide_esite>  (1) 
-0.25284733898211764

>  <r_i_glide_evdw>  (1) 
-25.210776466150701

>  <r_i_glide_gscore>  (1) 
-6.4226496131656567

>  <r_i_glide_gscore_strain>  (1) 
0

>  <r_i_glide_hbond>  (1) 
-0.45376744625672183

>  <r_i_glide_ligand_efficiency>  (1) 
-0.18958650655230846

>  <r_i_glide_ligand_efficiency_ln>  (1) 
-1.2589045725427701

>  <r_i_glide_ligand_efficiency_sa>  (1) 
-0.58246981400365749

>  <r_i_glide_lipo>  (1) 
-1.3000090442634116

>  <r_i_glide_metal>  (1) 
-0

>  <r_i_glide_rewards>  (1) 
-1.9318170639414052

>  <r_lp_Energy>  (1) 
49.910619999999994

>  <r_lp_tautomer_probability>  (1) 
1

>  <s_epik_Chemistry_Notes>  (1) 
This compound contains an acetal/aminal-like group ( X-CH(R)-Y where X, Y are N, S, or O) that may be acid/base labile, releasing an aldehyde. This compound has a N-S or N-O group and may undergo hydrolysis at high or low pH.

>  <s_epik_cmdline>  (1) 
J2VwaWtfcHl0aG9uJywgJy1waHQnLCAnMS4wJywgJy1waCcsICc3LjQnLCAnLXRuJywgJzgnLCAnLW1hJywgJzUwMCcsICctaW1hZScsICc8aW5maWxlLm1hZT4nLCAnLW9tYWUnLCAnPG91dGZpbGUubWFlPic=

>  <s_epik_input>  (1) 
Tz1DKFtOSDJdKVtDQEBIXShbTkgyXSlbQ0hdKFtDSDJdMSlbQ0gyXU4xU1tDQEBIXTJbQ0gyXVtDSDJdW0NASF0oTihPW0NIM10pW0NASF0oW0NIM10pW0NIMl1bQ0gzXSlPYyhjMjMpW2NIXWMoRilbY0hdW2NIXTM=

>  <s_glide_docking_method>  (1) 
confgen

>  <s_i_glide_gridfile>  (1) 
gpcr_drd2_6luq_protein_autoprepared_prepared

>  <s_lp_Force_Field>  (1) 
S-OPLS

>  <s_lp_Variant>  (1) 
DiffSBDD_8-3

>  <s_m_source_file>  (1) 
generated_generic_title2_ligand_DiffSBDD_2026-06-23_prepared.sdf

>  <GenAI_Model>  (1) 
DiffSBDD

>  <Protein>  (1) 
generic_title2

$$$$
DiffSBDD_93
     RDKit          3D

  0  0  0  0  0  0  0  0  0  0999 V3000
M  V30 BEGIN CTAB
M  V30 COUNTS 69 73 0 0 1
M  V30 BEGIN ATOM
M  V30 1 C 7.414188 5.259808 -12.741112 0 CFG=1
M  V30 2 C 11.375414 6.630185 -5.473299 0
M  V30 3 C 9.287475 5.590227 -17.381381 0
M  V30 4 O 12.175395 9.590226 -1.947281 0
M  V30 5 C 9.515276 6.520477 -12.785031 0
M  V30 6 C 10.183693 7.746975 -12.309590 0
M  V30 7 C 11.662855 9.361723 -4.832601 0
M  V30 8 C 6.130770 4.607639 -10.385433 0
M  V30 9 N 8.352771 6.150534 -12.038583 0 CFG=2 CHG=1
M  V30 10 C 11.372162 8.988826 -6.163950 0
M  V30 11 C 11.652314 7.057029 -4.180603 0
M  V30 12 C 6.876487 4.969002 -16.076319 0
M  V30 13 C 8.063770 4.357308 -13.892715 0 CFG=1
M  V30 14 C 12.053746 8.520896 -2.516316 0
M  V30 15 C 9.307904 5.190198 -16.029260 0
M  V30 16 C 5.024530 5.655381 -10.604211 0
M  V30 17 O 7.341704 3.140138 -13.868542 0
M  V30 18 C 7.318709 4.609615 -11.334775 0 CFG=2
M  V30 19 C 11.226154 7.598707 -6.487488 0
M  V30 20 C 11.790239 8.345368 -3.885824 0
M  V30 21 C 8.070378 5.678939 -18.076658 0
M  V30 22 N 12.107355 7.293359 -1.985023 0
M  V30 23 C 11.803735 6.138895 -2.954640 0
M  V30 24 C 10.111731 8.092951 -8.542922 0
M  V30 25 N 10.936379 7.179994 -7.783752 0
M  V30 26 C 8.660370 5.254468 -10.967827 0 CFG=2
M  V30 27 C 9.685290 7.444239 -9.856743 0 CFG=2
M  V30 28 C 8.085923 4.861800 -15.365940 0
M  V30 29 C 9.023831 6.020007 -9.679278 0
M  V30 30 O 10.501063 5.135181 -15.379526 0
M  V30 31 C 6.317559 6.184413 -13.306001 0
M  V30 32 C 10.786623 7.590275 -10.916584 0
M  V30 33 C 6.867440 5.375971 -17.424026 0
M  V30 34 H 11.265156 5.590215 -5.693976 0
M  V30 35 H 10.211607 5.834754 -17.884097 0
M  V30 36 H 8.975327 6.789812 -13.645111 0
M  V30 37 H 10.227458 5.717642 -12.968685 0
M  V30 38 H 10.975403 7.849096 -13.054418 0
M  V30 39 H 9.526270 8.616231 -12.382375 0
M  V30 40 H 11.775402 10.395742 -4.557330 0
M  V30 41 H 6.575413 4.677645 -9.404052 0
M  V30 42 H 5.654900 3.625682 -10.405321 0
M  V30 43 H 11.269002 9.745219 -6.920698 0
M  V30 44 H 5.948701 4.733257 -15.585004 0
M  V30 45 H 9.062817 4.029138 -13.611902 0
M  V30 46 H 4.204111 5.590264 -9.892965 0
M  V30 47 H 4.575406 5.490134 -11.572830 0
M  V30 48 H 5.375397 6.681234 -10.547215 0
M  V30 49 H 7.428058 2.741431 -13.015986 0
M  V30 50 H 7.602040 3.590224 -11.459854 0
M  V30 51 H 8.060274 5.987455 -19.111725 0
M  V30 52 H 12.278574 7.126401 -1.006669 0
M  V30 53 H 10.856489 5.676324 -2.689203 0
M  V30 54 H 12.575416 5.392301 -3.039884 0
M  V30 55 H 9.221736 8.340002 -7.960235 0
M  V30 56 H 10.631633 9.026785 -8.751543 0
M  V30 57 H 10.733349 6.198856 -7.904879 0
M  V30 58 H 9.468660 4.573435 -11.248418 0
M  V30 59 H 8.933392 8.134840 -10.214299 0
M  V30 60 H 8.175414 6.097215 -9.006607 0
M  V30 61 H 9.710386 5.375492 -9.132224 0
M  V30 62 H 10.659067 4.434132 -14.759854 0
M  V30 63 H 5.435988 5.626909 -13.620898 0
M  V30 64 H 6.665049 6.762676 -14.161213 0
M  V30 65 H 5.999193 6.949444 -12.602062 0
M  V30 66 H 11.511874 6.790230 -10.879803 0
M  V30 67 H 11.370026 8.488517 -10.717400 0
M  V30 68 H 5.931326 5.449437 -17.958026 0
M  V30 69 H 7.853286 6.949213 -11.666911 0
M  V30 END ATOM
M  V30 BEGIN BOND
M  V30 1 1 6 5
M  V30 2 1 9 1
M  V30 3 1 9 5
M  V30 4 2 10 7
M  V30 5 1 11 2
M  V30 6 1 13 1
M  V30 7 2 14 4
M  V30 8 2 15 3
M  V30 9 1 16 8
M  V30 10 1 17 13
M  V30 11 1 18 1
M  V30 12 1 18 8
M  V30 13 2 19 2
M  V30 14 1 19 10
M  V30 15 1 20 7
M  V30 16 2 20 11
M  V30 17 1 20 14
M  V30 18 1 21 3
M  V30 19 1 22 14
M  V30 20 1 23 11
M  V30 21 1 23 22
M  V30 22 1 25 19
M  V30 23 1 25 24
M  V30 24 1 26 9
M  V30 25 1 26 18
M  V30 26 1 27 24
M  V30 27 2 28 12
M  V30 28 1 28 13
M  V30 29 1 28 15
M  V30 30 1 29 26
M  V30 31 1 29 27
M  V30 32 1 30 15
M  V30 33 1 1 31 CFG=3
M  V30 34 1 32 6
M  V30 35 1 32 27
M  V30 36 1 33 12
M  V30 37 2 33 21
M  V30 38 1 34 2
M  V30 39 1 35 3
M  V30 40 1 36 5
M  V30 41 1 37 5
M  V30 42 1 38 6
M  V30 43 1 39 6
M  V30 44 1 40 7
M  V30 45 1 41 8
M  V30 46 1 42 8
M  V30 47 1 43 10
M  V30 48 1 44 12
M  V30 49 1 13 45 CFG=1
M  V30 50 1 46 16
M  V30 51 1 47 16
M  V30 52 1 48 16
M  V30 53 1 49 17
M  V30 54 1 18 50 CFG=3
M  V30 55 1 51 21
M  V30 56 1 52 22
M  V30 57 1 53 23
M  V30 58 1 54 23
M  V30 59 1 55 24
M  V30 60 1 56 24
M  V30 61 1 57 25
M  V30 62 1 26 58 CFG=3
M  V30 63 1 27 59 CFG=3
M  V30 64 1 60 29
M  V30 65 1 61 29
M  V30 66 1 62 30
M  V30 67 1 63 31
M  V30 68 1 64 31
M  V30 69 1 65 31
M  V30 70 1 66 32
M  V30 71 1 67 32
M  V30 72 1 68 33
M  V30 73 1 9 69 CFG=1
M  V30 END BOND
M  V30 END CTAB
M  END
>  <i_epik_Tot_Q>  (1) 
1

>  <i_epik_Tot_abs_Q>  (1) 
1

>  <i_i_glide_confnum>  (1) 
65

>  <i_i_glide_lignum>  (1) 
177

>  <i_i_glide_posenum>  (1) 
391

>  <i_i_glide_rotatable_bonds>  (1) 
8

>  <i_lp_mmshare_version>  (1) 
72125

>  <i_m_source_file_index>  (1) 
94

>  <i_f3d_flags>  (1) 
0

>  <num_sample>  (1) 
100

>  <b_lp_Chiralities_Consistent>  (1) 
1

>  <r_epik_Charging_Adjusted_Penalty>  (1) 
0.009895405337619817

>  <r_epik_Ionization_Penalty>  (1) 
0.010018489252536679

>  <r_epik_Ionization_Penalty_Charging>  (1) 
0.00060073207358730301

>  <r_epik_Ionization_Penalty_Neutral>  (1) 
0.0094177571789493767

>  <r_epik_State_Penalty>  (1) 
0.0092946732640325144

>  <r_glide_ring_energy>  (1) 
0

>  <r_i_docking_score>  (1) 
-5.4973934182144779

>  <r_i_glide_ecoul>  (1) 
-5.1237803008968896

>  <r_i_glide_eff_state_penalty>  (1) 
0.0092946732640325144

>  <r_i_glide_einternal>  (1) 
4.4144788982522805

>  <r_i_glide_emodel>  (1) 
-24.977266395526627

>  <r_i_glide_emodel_strain>  (1) 
3.8838537325401035

>  <r_i_glide_energy>  (1) 
-21.107112179223783

>  <r_i_glide_erotb>  (1) 
0.49373930985115227

>  <r_i_glide_esite>  (1) 
-0.036020001715409387

>  <r_i_glide_evdw>  (1) 
-15.983331878326894

>  <r_i_glide_gscore>  (1) 
-5.5066880914785106

>  <r_i_glide_gscore_strain>  (1) 
0

>  <r_i_glide_hbond>  (1) 
-0.18866699595806058

>  <r_i_glide_ligand_efficiency>  (1) 
-0.16658767933983265

>  <r_i_glide_ligand_efficiency_ln>  (1) 
-1.2225918322311398

>  <r_i_glide_ligand_efficiency_sa>  (1) 
-0.53433570043684975

>  <r_i_glide_lipo>  (1) 
-2.6236497681330042

>  <r_i_glide_metal>  (1) 
-0

>  <r_i_glide_rewards>  (1) 
-1.5843569964723101

>  <r_lp_Energy>  (1) 
49.614931999999996

>  <r_lp_tautomer_probability>  (1) 
0.99999999999736477

>  <s_epik_cmdline>  (1) 
J2VwaWtfcHl0aG9uJywgJy1waHQnLCAnMS4wJywgJy1waCcsICc3LjQnLCAnLXRuJywgJzgnLCAnLW1hJywgJzUwMCcsICctaW1hZScsICc8aW5maWxlLm1hZT4nLCAnLW9tYWUnLCAnPG91dGZpbGUubWFlPic=

>  <s_epik_input>  (1) 
W09IXWMxW2NIXVtjSF1bY0hdW2NIXWMxW0NASF0oW09IXSlbQ0BAXTIoW0NIM10pW0NASF0oW0NIMl1bQ0gzXSlbQ0BASF0oTjIzKVtDSDJdW0NASF0oW0NIMl1bQ0gyXVtDSDJdMylbQ0gyXVtOSF1jKFtjSF00KVtjSF1bY0hdYyhjNDUpQyg9TylbTkhdW0NIMl01

>  <s_glide_docking_method>  (1) 
confgen

>  <s_i_glide_gridfile>  (1) 
gpcr_drd2_6luq_protein_autoprepared_prepared

>  <s_lp_Force_Field>  (1) 
S-OPLS

>  <s_lp_Variant>  (1) 
DiffSBDD_93-2

>  <s_m_source_file>  (1) 
generated_generic_title2_ligand_DiffSBDD_2026-06-23_prepared.sdf

>  <GenAI_Model>  (1) 
DiffSBDD

>  <Protein>  (1) 
generic_title2

$$$$
DiffSBDD_40
     RDKit          3D

  0  0  0  0  0  0  0  0  0  0999 V3000
M  V30 BEGIN CTAB
M  V30 COUNTS 89 95 0 0 1
M  V30 BEGIN ATOM
M  V30 1 N 14.223127 5.653125 -19.573195 0
M  V30 2 C 14.701166 7.339258 -17.770995 0
M  V30 3 C 7.732994 3.085401 -13.805482 0
M  V30 4 C 10.817362 7.158167 -9.209299 0
M  V30 5 C 7.774039 3.413924 -15.208021 0
M  V30 6 C 13.598835 6.744291 -18.770256 0 CFG=2
M  V30 7 C 7.811102 1.027410 -15.754436 0
M  V30 8 C 8.815789 5.573509 -10.840603 0 CFG=1
M  V30 9 O 11.005001 5.325932 -20.006446 0
M  V30 10 C 7.640983 4.175557 -12.698127 0 CFG=1
M  V30 11 C 7.771199 4.864225 -15.711360 0 CFG=1
M  V30 12 N 10.790765 4.374935 -21.992123 0
M  V30 13 C 12.147228 6.654205 -18.339320 0 CFG=1
M  V30 14 C 6.655525 6.262578 -13.866499 0
M  V30 15 N 10.360164 6.788202 -5.684045 0 CHG=1
M  V30 16 C 11.075178 4.159462 -20.665459 0
M  V30 17 O 9.775110 5.227977 -13.126809 0
M  V30 18 C 15.864017 6.577124 -18.314634 0
M  V30 19 C 9.760767 6.551878 -11.347005 0
M  V30 20 C 9.966329 5.421346 -17.843842 0
M  V30 21 C 16.532073 4.930570 -19.929313 0
M  V30 22 C 15.552031 5.701446 -19.284478 0
M  V30 23 N 8.888496 4.633746 -12.051870 0
M  V30 24 C 10.141683 7.710953 -10.464270 0
M  V30 25 O 11.352401 3.082014 -20.144569 0
M  V30 26 C 7.740756 1.723846 -13.422573 0
M  V30 27 N 8.975599 6.559672 -7.647424 0
M  V30 28 C 9.371419 4.977274 -9.524260 0
M  V30 29 C 7.813219 2.370705 -16.162660 0
M  V30 30 C 6.450431 5.156481 -12.829480 0 CFG=1
M  V30 31 C 7.776983 0.705041 -14.390966 0
M  V30 32 C 17.189936 6.755470 -17.884944 0
M  V30 33 C 12.570495 7.627144 -19.428623 0
M  V30 34 C 18.212276 5.992642 -18.497275 0
M  V30 35 C 9.371626 7.443284 -6.557870 0
M  V30 36 C 5.128186 4.389672 -13.032855 0
M  V30 37 C 6.603115 5.762667 -15.305571 0
M  V30 38 C 11.301944 5.408120 -18.613828 0 CFG=1
M  V30 39 C 17.881164 5.075074 -19.529611 0
M  V30 40 O 8.999070 5.557491 -15.578761 0
M  V30 41 C 10.226041 6.324813 -12.516469 0
M  V30 42 C 10.110551 5.098934 -16.341417 0
M  V30 43 C 9.999592 6.014326 -8.534432 0 CFG=1
M  V30 44 H 13.932134 5.524698 -20.532017 0
M  V30 45 H 14.810841 8.419311 -17.876393 0
M  V30 46 H 14.483945 7.065482 -16.738840 0
M  V30 47 H 11.793709 6.790713 -9.511556 0
M  V30 48 H 11.061442 7.972625 -8.530491 0
M  V30 49 H 7.837220 0.239763 -16.493302 0
M  V30 50 H 7.861214 6.065765 -10.679329 0
M  V30 51 H 7.272160 3.586193 -11.860453 0
M  V30 52 H 7.607982 4.776537 -16.784979 0
M  V30 53 H 10.575528 5.313759 -22.290335 0
M  V30 54 H 10.804636 3.585652 -22.619610 0
M  V30 55 H 11.955152 7.099478 -17.366471 0
M  V30 56 H 7.595212 6.784832 -13.683547 0
M  V30 57 H 5.869220 7.007073 -13.734378 0
M  V30 58 H 10.595882 7.398047 -4.915596 0
M  V30 59 H 9.965047 5.929259 -5.324210 0
M  V30 60 H 9.294915 4.684706 -18.285973 0
M  V30 61 H 9.487567 6.390008 -17.985035 0
M  V30 62 H 16.262035 4.236358 -20.711497 0
M  V30 63 H 10.809957 8.390520 -10.985221 0
M  V30 64 H 9.242723 8.271374 -10.204276 0
M  V30 65 H 7.708732 1.460477 -12.385023 0
M  V30 66 H 8.097572 6.059016 -7.548715 0
M  V30 67 H 10.140702 4.253212 -9.780739 0
M  V30 68 H 8.597163 4.392312 -9.028886 0
M  V30 69 H 7.842671 2.607052 -17.216196 0
M  V30 70 H 6.306373 5.681560 -11.888853 0
M  V30 71 H 7.776262 -0.331420 -14.083382 0
M  V30 72 H 17.425597 7.464828 -17.105414 0
M  V30 73 H 12.317288 7.415287 -20.464951 0
M  V30 74 H 12.596497 8.685120 -19.185052 0
M  V30 75 H 19.239383 6.111453 -18.184641 0
M  V30 76 H 9.776122 8.382649 -6.934152 0
M  V30 77 H 8.488275 7.715444 -5.985026 0
M  V30 78 H 5.236027 3.459239 -13.585448 0
M  V30 79 H 4.685356 4.130200 -12.072915 0
M  V30 80 H 4.424030 4.987772 -13.597037 0
M  V30 81 H 6.614746 6.639213 -15.954967 0
M  V30 82 H 5.660665 5.261682 -15.516854 0
M  V30 83 H 11.886257 4.542697 -18.296448 0
M  V30 84 H 18.654831 4.490610 -20.006355 0
M  V30 85 H 10.946295 6.897566 -13.080818 0
M  V30 86 H 10.982612 5.607947 -15.932658 0
M  V30 87 H 10.288983 4.034982 -16.187324 0
M  V30 88 H 10.681212 5.447314 -7.899400 0
M  V30 89 H 11.191804 6.576208 -6.215588 0
M  V30 END ATOM
M  V30 BEGIN BOND
M  V30 1 1 5 3
M  V30 2 1 6 1 CFG=3
M  V30 3 1 6 2
M  V30 4 1 10 3
M  V30 5 1 11 5
M  V30 6 1 13 6
M  V30 7 1 16 9
M  V30 8 1 16 12
M  V30 9 1 18 2
M  V30 10 1 19 8
M  V30 11 1 22 1
M  V30 12 1 22 18
M  V30 13 2 22 21
M  V30 14 1 23 8
M  V30 15 1 23 10
M  V30 16 1 23 17
M  V30 17 1 24 4
M  V30 18 1 24 19
M  V30 19 2 25 16
M  V30 20 2 26 3
M  V30 21 1 28 8
M  V30 22 2 29 5
M  V30 23 1 29 7
M  V30 24 1 30 10
M  V30 25 1 30 14
M  V30 26 2 31 7
M  V30 27 1 31 26
M  V30 28 2 32 18
M  V30 29 1 33 6
M  V30 30 1 33 13
M  V30 31 1 34 32
M  V30 32 1 35 15
M  V30 33 1 35 27
M  V30 34 1 36 30
M  V30 35 1 37 11
M  V30 36 1 37 14
M  V30 37 1 38 9
M  V30 38 1 38 13
M  V30 39 1 38 20
M  V30 40 1 39 21
M  V30 41 2 39 34
M  V30 42 1 40 11
M  V30 43 1 41 17
M  V30 44 2 41 19
M  V30 45 1 42 20
M  V30 46 1 42 40
M  V30 47 1 43 4
M  V30 48 1 43 27
M  V30 49 1 43 28
M  V30 50 1 44 1
M  V30 51 1 45 2
M  V30 52 1 46 2
M  V30 53 1 47 4
M  V30 54 1 48 4
M  V30 55 1 49 7
M  V30 56 1 8 50 CFG=1
M  V30 57 1 10 51 CFG=1
M  V30 58 1 11 52 CFG=3
M  V30 59 1 53 12
M  V30 60 1 54 12
M  V30 61 1 13 55 CFG=1
M  V30 62 1 56 14
M  V30 63 1 57 14
M  V30 64 1 58 15
M  V30 65 1 59 15
M  V30 66 1 60 20
M  V30 67 1 61 20
M  V30 68 1 62 21
M  V30 69 1 63 24
M  V30 70 1 64 24
M  V30 71 1 65 26
M  V30 72 1 66 27
M  V30 73 1 67 28
M  V30 74 1 68 28
M  V30 75 1 69 29
M  V30 76 1 30 70 CFG=1
M  V30 77 1 71 31
M  V30 78 1 72 32
M  V30 79 1 73 33
M  V30 80 1 74 33
M  V30 81 1 75 34
M  V30 82 1 76 35
M  V30 83 1 77 35
M  V30 84 1 78 36
M  V30 85 1 79 36
M  V30 86 1 80 36
M  V30 87 1 81 37
M  V30 88 1 82 37
M  V30 89 1 38 83 CFG=1
M  V30 90 1 84 39
M  V30 91 1 85 41
M  V30 92 1 86 42
M  V30 93 1 87 42
M  V30 94 1 43 88 CFG=1
M  V30 95 1 89 15
M  V30 END BOND
M  V30 END CTAB
M  END
>  <i_epik_Tot_Q>  (1) 
1

>  <i_epik_Tot_abs_Q>  (1) 
1

>  <i_i_glide_confnum>  (1) 
718

>  <i_i_glide_lignum>  (1) 
67

>  <i_i_glide_posenum>  (1) 
189

>  <i_i_glide_rotatable_bonds>  (1) 
10

>  <i_lp_mmshare_version>  (1) 
72125

>  <i_m_source_file_index>  (1) 
41

>  <i_f3d_flags>  (1) 
0

>  <num_sample>  (1) 
100

>  <b_lp_Chiralities_Consistent>  (1) 
1

>  <r_epik_Charging_Adjusted_Penalty>  (1) 
0.00021732795814705282

>  <r_epik_Ionization_Penalty>  (1) 
0.031196808922400864

>  <r_epik_Ionization_Penalty_Charging>  (1) 
0.00021732795814705282

>  <r_epik_Ionization_Penalty_Neutral>  (1) 
0.030979480964253809

>  <r_epik_State_Penalty>  (1) 
-0

>  <r_glide_ring_energy>  (1) 
0

>  <r_i_docking_score>  (1) 
-5.4941033927680163

>  <r_i_glide_ecoul>  (1) 
-2.0701923004553797

>  <r_i_glide_eff_state_penalty>  (1) 
-0

>  <r_i_glide_einternal>  (1) 
34.265308876307046

>  <r_i_glide_emodel>  (1) 
-32.658982404635836

>  <r_i_glide_emodel_strain>  (1) 
4.0937863209502723

>  <r_i_glide_energy>  (1) 
-38.922734121299726

>  <r_i_glide_erotb>  (1) 
0.31563021086283022

>  <r_i_glide_esite>  (1) 
-0.0542379861717932

>  <r_i_glide_evdw>  (1) 
-36.852541820844344

>  <r_i_glide_gscore>  (1) 
-5.4941033927680163

>  <r_i_glide_gscore_strain>  (1) 
0.023446580237568071

>  <r_i_glide_hbond>  (1) 
-0.029385108227266858

>  <r_i_glide_ligand_efficiency>  (1) 
-0.12776984634344224

>  <r_i_glide_ligand_efficiency_ln>  (1) 
-1.1539324664507811

>  <r_i_glide_ligand_efficiency_sa>  (1) 
-0.44762863185552543

>  <r_i_glide_lipo>  (1) 
-2.396540624075032

>  <r_i_glide_metal>  (1) 
-0

>  <r_i_glide_rewards>  (1) 
-1.1998605292837978

>  <r_lp_Energy>  (1) 
53.785801999999997

>  <r_lp_tautomer_probability>  (1) 
1

>  <s_epik_Chemistry_Notes>  (1) 
This compound has an ester and may undergo hydrolysis at high or low pH. This compound contains an acetal/aminal-like group ( X-CH(R)-Y where X, Y are N, S, or O) that may be acid/base labile, releasing an aldehyde. This compound has a N-S or N-O group and may undergo hydrolysis at high or low pH.

>  <s_epik_cmdline>  (1) 
J2VwaWtfcHl0aG9uJywgJy1waHQnLCAnMS4wJywgJy1waCcsICc3LjQnLCAnLXRuJywgJzgnLCAnLW1hJywgJzUwMCcsICctaW1hZScsICc8aW5maWxlLm1hZT4nLCAnLW9tYWUnLCAnPG91dGZpbGUubWFlPic=

>  <s_epik_input>  (1) 
W2NIXTFbY0hdW2NIXVtjSF1jKFtDSDJdMiljMVtOSF1bQ0BAXTIzW0NAQEhdKFtDSDJdMylbQ0BASF0oT0MoPU8pW05IMl0pW0NIMl1bQ0gyXU9bQ0BASF0oYyhjNDUpW2NIXVtjSF1bY0hdW2NIXTUpW0NIMl1bQ0gyXVtDQEBIXShbQ0gzXSlbQ0BASF00TjZPW0NIXT1DKFtDQEBIXTY3KVtDSDJdW0NIMl1bQ0BIXShbQ0gyXTcpW05IXVtDSDJdW05IMl0=

>  <s_glide_docking_method>  (1) 
confgen

>  <s_i_glide_gridfile>  (1) 
gpcr_drd2_6luq_protein_autoprepared_prepared

>  <s_lp_Force_Field>  (1) 
S-OPLS

>  <s_lp_Variant>  (1) 
DiffSBDD_40-2

>  <s_m_source_file>  (1) 
generated_generic_title2_ligand_DiffSBDD_2026-06-23_prepared.sdf

>  <GenAI_Model>  (1) 
DiffSBDD

>  <Protein>  (1) 
generic_title2

$$$$
DiffSBDD_88
     RDKit          3D

  0  0  0  0  0  0  0  0  0  0999 V3000
M  V30 BEGIN CTAB
M  V30 COUNTS 37 38 0 0 1
M  V30 BEGIN ATOM
M  V30 1 C 6.957697 5.485227 -11.328015 0 CFG=1
M  V30 2 F 4.978248 4.390228 -12.061876 0
M  V30 3 C 10.600694 7.588889 -9.295101 0
M  V30 4 C 11.265561 8.306903 -8.116261 0
M  V30 5 O 8.387381 4.790228 -8.707250 0
M  V30 6 O 10.975403 8.137971 -5.703036 0
M  V30 7 O 6.356486 6.735547 -11.585025 0
M  V30 8 C 10.295912 8.121155 -6.940864 0 CFG=2
M  V30 9 C 8.871048 5.580436 -13.051696 0
M  V30 10 N 9.748262 6.598742 -8.633580 0
M  V30 11 C 6.299952 4.402184 -12.219825 0 CFG=1
M  V30 12 F 8.571055 4.509904 -15.127768 0
M  V30 13 C 8.210164 4.442233 -13.845517 0 CFG=2
M  V30 14 C 9.111205 5.595036 -9.293955 0
M  V30 15 C 6.011596 5.605187 -14.494091 0
M  V30 16 N 9.375408 5.594960 -10.658639 0
M  V30 17 C 8.483082 5.553311 -11.582216 0
M  V30 18 C 9.616025 6.773482 -7.195754 0
M  V30 19 C 6.675103 4.447117 -13.719271 0 CFG=2
M  V30 20 H 6.696474 5.244337 -10.302032 0
M  V30 21 H 11.349570 7.161503 -9.963022 0
M  V30 22 H 9.974308 8.277393 -9.864820 0
M  V30 23 H 11.487712 9.352738 -8.326757 0
M  V30 24 H 12.211356 7.810443 -7.893175 0
M  V30 25 H 10.388397 7.798131 -5.045029 0
M  V30 26 H 6.575409 7.299271 -10.835769 0
M  V30 27 H 9.541838 8.909233 -6.959928 0
M  V30 28 H 8.575407 6.545316 -13.462392 0
M  V30 29 H 9.956328 5.520346 -13.147490 0
M  V30 30 H 6.615444 3.432395 -11.835863 0
M  V30 31 H 8.597420 3.487522 -13.485660 0
M  V30 32 H 6.362052 6.583898 -14.170878 0
M  V30 33 H 6.211374 5.525735 -15.562980 0
M  V30 34 H 4.930336 5.590220 -14.367624 0
M  V30 35 H 10.139364 5.959185 -6.693404 0
M  V30 36 H 8.575405 6.776759 -6.867445 0
M  V30 37 H 6.305937 3.526203 -14.172645 0
M  V30 END ATOM
M  V30 BEGIN BOND
M  V30 1 1 4 3
M  V30 2 1 7 1
M  V30 3 1 8 4
M  V30 4 1 8 6
M  V30 5 1 10 3
M  V30 6 1 11 1
M  V30 7 1 11 2
M  V30 8 1 13 9
M  V30 9 1 13 12
M  V30 10 2 14 5
M  V30 11 1 14 10
M  V30 12 1 16 14
M  V30 13 1 17 1
M  V30 14 1 17 9
M  V30 15 2 17 16
M  V30 16 1 18 8
M  V30 17 1 18 10
M  V30 18 1 19 11
M  V30 19 1 19 13
M  V30 20 1 19 15
M  V30 21 1 1 20 CFG=1
M  V30 22 1 21 3
M  V30 23 1 22 3
M  V30 24 1 23 4
M  V30 25 1 24 4
M  V30 26 1 25 6
M  V30 27 1 26 7
M  V30 28 1 8 27 CFG=1
M  V30 29 1 28 9
M  V30 30 1 29 9
M  V30 31 1 11 30 CFG=1
M  V30 32 1 13 31 CFG=1
M  V30 33 1 32 15
M  V30 34 1 33 15
M  V30 35 1 34 15
M  V30 36 1 35 18
M  V30 37 1 36 18
M  V30 38 1 19 37 CFG=3
M  V30 END BOND
M  V30 END CTAB
M  END
>  <i_epik_Tot_Q>  (1) 
0

>  <i_epik_Tot_abs_Q>  (1) 
0

>  <i_i_glide_confnum>  (1) 
1

>  <i_i_glide_lignum>  (1) 
160

>  <i_i_glide_posenum>  (1) 
156

>  <i_i_glide_rotatable_bonds>  (1) 
4

>  <i_lp_mmshare_version>  (1) 
72125

>  <i_m_source_file_index>  (1) 
89

>  <i_f3d_flags>  (1) 
0

>  <num_sample>  (1) 
100

>  <b_lp_Chiralities_Consistent>  (1) 
1

>  <r_epik_Charging_Adjusted_Penalty>  (1) 
0.16120785643113181

>  <r_epik_Ionization_Penalty>  (1) 
0.1612079103687071

>  <r_epik_Ionization_Penalty_Charging>  (1) 
0

>  <r_epik_Ionization_Penalty_Neutral>  (1) 
0.1612079103687071

>  <r_epik_State_Penalty>  (1) 
0.16120785643113181

>  <r_glide_ring_energy>  (1) 
0

>  <r_i_docking_score>  (1) 
-5.4930206568262223

>  <r_i_glide_ecoul>  (1) 
-7.2484596290201155

>  <r_i_glide_eff_state_penalty>  (1) 
0.16120785643113181

>  <r_i_glide_einternal>  (1) 
3.1355063823104929

>  <r_i_glide_emodel>  (1) 
-44.303875941708242

>  <r_i_glide_emodel_strain>  (1) 
1.1655796092275423

>  <r_i_glide_energy>  (1) 
-36.792890486819395

>  <r_i_glide_erotb>  (1) 
0.47132455663783185

>  <r_i_glide_esite>  (1) 
-0.16920132703163157

>  <r_i_glide_evdw>  (1) 
-29.544430857799277

>  <r_i_glide_gscore>  (1) 
-5.6542285132573538

>  <r_i_glide_gscore_strain>  (1) 
0

>  <r_i_glide_hbond>  (1) 
-0.15903097698672766

>  <r_i_glide_ligand_efficiency>  (1) 
-0.28910635035927484

>  <r_i_glide_ligand_efficiency_ln>  (1) 
-1.3925987157714979

>  <r_i_glide_ligand_efficiency_sa>  (1) 
-0.77145186195467341

>  <r_i_glide_lipo>  (1) 
-0.97888624274926128

>  <r_i_glide_metal>  (1) 
-0

>  <r_i_glide_rewards>  (1) 
-2.2539440358845844

>  <r_lp_Energy>  (1) 
17.035233999999999

>  <s_epik_Chemistry_Notes>  (1) 
This compound has an imine and may undergo hydrolysis.

>  <s_epik_cmdline>  (1) 
J2VwaWtfcHl0aG9uJywgJy1waHQnLCAnMS4wJywgJy1waCcsICc3LjQnLCAnLXRuJywgJzgnLCAnLW1hJywgJzUwMCcsICctaW1hZScsICc8aW5maWxlLm1hZT4nLCAnLW9tYWUnLCAnPG91dGZpbGUubWFlPic=

>  <s_epik_input>  (1) 
W09IXVtDQEhdMVtDQEBIXShGKVtDQEBIXShbQ0gzXSlbQ0BASF0oRilbQ0gyXUNcMT1OXEMoPU8pTihbQ0gyXTIpW0NIMl1bQ0gyXVtDQEBIXTJbT0hd

>  <s_glide_docking_method>  (1) 
confgen

>  <s_i_glide_gridfile>  (1) 
gpcr_drd2_6luq_protein_autoprepared_prepared

>  <s_lp_Force_Field>  (1) 
S-OPLS

>  <s_lp_Variant>  (1) 
DiffSBDD_88-1

>  <s_m_source_file>  (1) 
generated_generic_title2_ligand_DiffSBDD_2026-06-23_prepared.sdf

>  <GenAI_Model>  (1) 
DiffSBDD

>  <Protein>  (1) 
generic_title2

$$$$
DiffSBDD_90
     RDKit          3D

  0  0  0  0  0  0  0  0  0  0999 V3000
M  V30 BEGIN CTAB
M  V30 COUNTS 80 84 0 0 1
M  V30 BEGIN ATOM
M  V30 1 C 8.588673 4.765815 -16.292368 0
M  V30 2 C 7.510017 3.693109 -16.476083 0 CFG=1
M  V30 3 C 8.857046 1.440883 -19.012831 0
M  V30 4 C 9.601658 5.948019 -10.466354 0 CFG=2
M  V30 5 C 6.850200 1.880384 -18.267673 0
M  V30 6 C 9.853668 0.781564 -19.830776 0 CFG=2
M  V30 7 C 7.455070 4.253998 -12.716333 0 CFG=2
M  V30 8 O 7.375406 6.303910 -15.102230 0 CHG=-1
M  V30 9 C 8.267466 5.368301 -14.903257 0 CFG=1
M  V30 10 C 9.383514 8.527362 -10.573354 0
M  V30 11 O 13.312582 8.236496 -8.802728 0
M  V30 12 C 7.730264 2.686807 -17.565417 0
M  V30 13 C 8.071169 1.885385 -14.575441 0 CFG=2
M  V30 14 O 12.287169 8.033806 -10.785025 0 CHG=-1
M  V30 15 O 10.150245 5.975018 -11.658855 0 CHG=-1
M  V30 16 C 7.485444 5.675914 -12.009816 0 CFG=2
M  V30 17 N 8.145865 5.682050 -10.663694 0 CHG=1
M  V30 18 N 7.436947 4.373895 -14.207701 0 CFG=1 CHG=1
M  V30 19 C 10.135230 6.565123 -6.810016 0
M  V30 20 C 6.124555 6.401708 -11.927932 0
M  V30 21 O 8.182085 0.756975 -15.417668 0
M  V30 22 O 5.375359 5.989380 -10.803492 0
M  V30 23 O 6.479452 0.904175 -12.385025 0
M  V30 24 C 6.575022 2.027793 -14.479460 0 CFG=1
M  V30 25 C 12.334987 7.977004 -9.541929 0
M  V30 26 C 6.218027 3.385380 -12.321909 0
M  V30 27 N 7.619603 1.147383 -19.125715 0
M  V30 28 O 9.130746 5.990497 -7.231114 0
M  V30 29 C 8.783416 -0.169844 -20.554203 0
M  V30 30 N 8.978182 2.373581 -18.070656 0 CHG=1
M  V30 31 C 9.781304 7.312909 -9.719045 0 CFG=2
M  V30 32 O 11.787193 1.865014 -18.068269 0
M  V30 33 O 10.807658 0.041451 -19.081098 0
M  V30 34 C 11.994200 0.727158 -18.839668 0
M  V30 35 C 10.457722 6.537169 -5.318870 0
M  V30 36 C 11.072801 7.495677 -8.829444 0
M  V30 37 C 6.020925 2.043887 -13.082209 0 CFG=2
M  V30 38 C 12.983124 2.580901 -17.804827 0
M  V30 39 N 11.082127 7.255211 -7.557589 0
M  V30 40 C 7.279434 0.145650 -20.078518 0
M  V30 41 C 7.389920 3.159973 -15.061785 0 CFG=1
M  V30 42 H 9.576924 4.308052 -16.247205 0
M  V30 43 H 8.605256 5.503161 -17.096701 0
M  V30 44 H 6.586678 4.220856 -16.717897 0
M  V30 45 H 9.868621 5.188808 -9.729041 0
M  V30 46 H 5.776299 1.775049 -18.211914 0
M  V30 47 H 10.285274 1.508033 -20.522479 0
M  V30 48 H 8.367355 3.723936 -12.442819 0
M  V30 49 H 9.208402 5.502253 -14.366529 0
M  V30 50 H 9.340585 9.408822 -9.941176 0
M  V30 51 H 10.064827 8.703760 -11.400138 0
M  V30 52 H 8.407733 8.425273 -11.035974 0
M  V30 53 H 8.637915 1.817568 -13.650204 0
M  V30 54 H 8.045021 6.376346 -12.622815 0
M  V30 55 H 7.723275 6.475805 -10.179886 0
M  V30 56 H 5.543478 6.258577 -12.839162 0
M  V30 57 H 6.282004 7.477703 -11.839865 0
M  V30 58 H 7.997503 -0.024344 -14.913149 0
M  V30 59 H 5.618987 6.567158 -10.084964 0
M  V30 60 H 6.066647 0.131997 -12.747527 0
M  V30 61 H 5.988519 1.426636 -15.172104 0
M  V30 62 H 6.173229 3.227433 -11.245090 0
M  V30 63 H 5.316275 3.956618 -12.545689 0
M  V30 64 H 8.865317 -0.067128 -21.635380 0
M  V30 65 H 9.016839 -1.212817 -20.339971 0
M  V30 66 H 8.975562 7.378062 -9.010151 0
M  V30 67 H 12.667137 0.051147 -18.308647 0
M  V30 68 H 12.459106 0.988226 -19.792440 0
M  V30 69 H 10.517674 7.549011 -4.920978 0
M  V30 70 H 9.674935 5.994615 -4.788762 0
M  V30 71 H 11.402552 6.030975 -5.116915 0
M  V30 72 H 4.961068 1.866839 -13.188076 0
M  V30 73 H 12.758336 3.455449 -17.192730 0
M  V30 74 H 13.699514 1.964553 -17.259501 0
M  V30 75 H 13.449576 2.927259 -18.729317 0
M  V30 76 H 6.787921 -0.688625 -19.574646 0
M  V30 77 H 6.644934 0.571799 -20.856180 0
M  V30 78 H 9.857120 2.779312 -17.766390 0
M  V30 79 H 7.893688 4.851550 -10.153775 0
M  V30 80 H 6.558186 4.836405 -14.391416 0
M  V30 END ATOM
M  V30 BEGIN BOND
M  V30 1 1 2 1
M  V30 2 1 6 3
M  V30 3 1 9 1
M  V30 4 1 9 8
M  V30 5 1 12 2
M  V30 6 2 12 5
M  V30 7 1 15 4
M  V30 8 1 16 7
M  V30 9 1 17 4
M  V30 10 1 17 16
M  V30 11 1 18 7
M  V30 12 1 18 9
M  V30 13 1 20 16
M  V30 14 1 21 13
M  V30 15 1 22 20
M  V30 16 1 24 13
M  V30 17 2 25 11
M  V30 18 1 25 14
M  V30 19 1 26 7
M  V30 20 1 27 3
M  V30 21 1 27 5
M  V30 22 2 28 19
M  V30 23 1 29 6
M  V30 24 2 30 3
M  V30 25 1 30 12
M  V30 26 1 31 4
M  V30 27 1 31 10
M  V30 28 1 33 6
M  V30 29 1 34 32
M  V30 30 1 34 33
M  V30 31 1 35 19
M  V30 32 1 36 25
M  V30 33 1 36 31
M  V30 34 1 37 23
M  V30 35 1 37 24
M  V30 36 1 37 26
M  V30 37 1 38 32
M  V30 38 1 39 19
M  V30 39 2 39 36
M  V30 40 1 40 27
M  V30 41 1 40 29
M  V30 42 1 41 2 CFG=3
M  V30 43 1 41 13
M  V30 44 1 41 18
M  V30 45 1 41 24
M  V30 46 1 42 1
M  V30 47 1 43 1
M  V30 48 1 2 44 CFG=3
M  V30 49 1 4 45 CFG=1
M  V30 50 1 46 5
M  V30 51 1 6 47 CFG=3
M  V30 52 1 7 48 CFG=3
M  V30 53 1 9 49 CFG=1
M  V30 54 1 50 10
M  V30 55 1 51 10
M  V30 56 1 52 10
M  V30 57 1 13 53 CFG=1
M  V30 58 1 16 54 CFG=3
M  V30 59 1 55 17
M  V30 60 1 56 20
M  V30 61 1 57 20
M  V30 62 1 58 21
M  V30 63 1 59 22
M  V30 64 1 60 23
M  V30 65 1 24 61 CFG=3
M  V30 66 1 62 26
M  V30 67 1 63 26
M  V30 68 1 64 29
M  V30 69 1 65 29
M  V30 70 1 31 66 CFG=1
M  V30 71 1 67 34
M  V30 72 1 68 34
M  V30 73 1 69 35
M  V30 74 1 70 35
M  V30 75 1 71 35
M  V30 76 1 37 72 CFG=3
M  V30 77 1 73 38
M  V30 78 1 74 38
M  V30 79 1 75 38
M  V30 80 1 76 40
M  V30 81 1 77 40
M  V30 82 1 78 30
M  V30 83 1 79 17
M  V30 84 1 18 80 CFG=1
M  V30 END BOND
M  V30 END CTAB
M  END
>  <i_epik_Tot_Q>  (1) 
0

>  <i_epik_Tot_abs_Q>  (1) 
6

>  <i_i_glide_confnum>  (1) 
2838

>  <i_i_glide_lignum>  (1) 
166

>  <i_i_glide_posenum>  (1) 
395

>  <i_i_glide_rotatable_bonds>  (1) 
15

>  <i_lp_mmshare_version>  (1) 
72125

>  <i_m_source_file_index>  (1) 
91

>  <i_f3d_flags>  (1) 
0

>  <num_sample>  (1) 
100

>  <b_lp_Chiralities_Consistent>  (1) 
1

>  <r_epik_Charging_Adjusted_Penalty>  (1) 
0.35079833336250127

>  <r_epik_Ionization_Penalty>  (1) 
1.4702178244609605

>  <r_epik_Ionization_Penalty_Charging>  (1) 
0.099885809697688246

>  <r_epik_Ionization_Penalty_Neutral>  (1) 
1.3703320147632723

>  <r_epik_State_Penalty>  (1) 
0.25091252366481304

>  <r_glide_ring_energy>  (1) 
0

>  <r_i_docking_score>  (1) 
-5.4928864764689598

>  <r_i_glide_ecoul>  (1) 
-8.9151233549955897

>  <r_i_glide_eff_state_penalty>  (1) 
0.25091252366481304

>  <r_i_glide_einternal>  (1) 
19.964216521713247

>  <r_i_glide_emodel>  (1) 
-43.762375778456502

>  <r_i_glide_emodel_strain>  (1) 
2.7119879688915773

>  <r_i_glide_energy>  (1) 
-39.95528782223942

>  <r_i_glide_erotb>  (1) 
0.57888693115673628

>  <r_i_glide_esite>  (1) 
-0.13491110325546152

>  <r_i_glide_evdw>  (1) 
-31.04016446724383

>  <r_i_glide_gscore>  (1) 
-5.7437990001337731

>  <r_i_glide_gscore_strain>  (1) 
0

>  <r_i_glide_hbond>  (1) 
-0.35228453040202301

>  <r_i_glide_ligand_efficiency>  (1) 
-0.13397284088948683

>  <r_i_glide_ligand_efficiency_ln>  (1) 
-1.1653341454710253

>  <r_i_glide_ligand_efficiency_sa>  (1) 
-0.46196745969818093

>  <r_i_glide_lipo>  (1) 
-1.3690460545312639

>  <r_i_glide_metal>  (1) 
-0

>  <r_i_glide_rewards>  (1) 
-1.5771675164902312

>  <r_lp_Energy>  (1) 
62.791187999999998

>  <r_lp_tautomer_probability>  (1) 
1

>  <s_epik_Chemistry_Notes>  (1) 
This compound has an imine and may undergo hydrolysis. This compound contains an acetal/aminal-like group ( X-CH(R)-Y where X, Y are N, S, or O) that may be acid/base labile, releasing an aldehyde.

>  <s_epik_cmdline>  (1) 
J2VwaWtfcHl0aG9uJywgJy1waHQnLCAnMS4wJywgJy1waCcsICc3LjQnLCAnLXRuJywgJzgnLCAnLW1hJywgJzUwMCcsICctaW1hZScsICc8aW5maWxlLm1hZT4nLCAnLW9tYWUnLCAnPG91dGZpbGUubWFlPic=

>  <s_epik_input>  (1) 
W0NIM11PW0NIMl1PW0NASF0xW0NIMl1bQ0gyXW4oYzEyKVtjSF1jKG4yKVtDQEBIXTNbQ0gyXVtDQEBIXShbT0hdKU4oW0NAQF0zNDUpW0NASF0oW0NIMl1bQ0BIXShbT0hdKVtDQEBIXTVbQ0BIXTRbT0hdKVtDQEBIXShbQ0gyXVtPSF0pW05IXVtDQEBIXShbT0hdKVtDQEhdKFtDSDNdKUMoXEMoPU8pW09IXSk9Ti9DKD1PKVtDSDNd

>  <s_glide_docking_method>  (1) 
confgen

>  <s_i_glide_gridfile>  (1) 
gpcr_drd2_6luq_protein_autoprepared_prepared

>  <s_lp_Force_Field>  (1) 
S-OPLS

>  <s_lp_Variant>  (1) 
DiffSBDD_90-1

>  <s_m_source_file>  (1) 
generated_generic_title2_ligand_DiffSBDD_2026-06-23_prepared.sdf

>  <GenAI_Model>  (1) 
DiffSBDD

>  <Protein>  (1) 
generic_title2

$$$$
DiffSBDD_65
     RDKit          3D

  0  0  0  0  0  0  0  0  0  0999 V3000
M  V30 BEGIN CTAB
M  V30 COUNTS 66 68 0 0 1
M  V30 BEGIN ATOM
M  V30 1 C 10.094104 7.019753 -8.568756 0 CFG=2
M  V30 2 N 9.293310 4.790277 -14.842834 0
M  V30 3 C 10.196487 6.437343 -7.143902 0
M  V30 4 C 6.053682 6.275365 -17.812009 0
M  V30 5 C 5.269476 6.812744 -21.992290 0
M  V30 6 C 6.389481 6.694919 -20.182819 0 CFG=1
M  V30 7 O 9.375416 8.232109 -8.571822 0
M  V30 8 O 9.457769 3.835547 -16.901540 0
M  V30 9 O 7.305788 5.879748 -17.363000 0
M  V30 10 O 8.245255 5.590224 -9.421770 0
M  V30 11 C 9.578049 6.003268 -9.625565 0 CFG=1
M  V30 12 C 7.750270 5.971845 -20.303860 0
M  V30 13 C 10.715557 7.449631 -6.108359 0
M  V30 14 O 6.522728 9.655663 -22.690498 0
M  V30 15 C 5.088226 4.447194 -20.853267 0
M  V30 16 C 8.378066 5.459839 -14.153027 0
M  V30 17 F 11.078284 5.442683 -7.197366 0
M  V30 18 C 10.995144 6.519819 -12.735289 0
M  V30 19 C 7.310552 4.956843 -16.283066 0 CFG=2
M  V30 20 C 9.796673 5.853770 -12.046670 0 CFG=2
M  V30 21 C 8.500840 5.990348 -12.858275 0
M  V30 22 N 7.475806 6.668234 -12.269983 0
M  V30 23 O 9.775447 6.623398 -10.850403 0
M  V30 24 C 8.975969 6.780290 -19.845265 0
M  V30 25 F 9.012011 5.980177 -6.739834 0
M  V30 26 C 6.163791 6.268864 -14.315551 0
M  V30 27 C 5.130100 5.967322 -20.724240 0 CFG=2
M  V30 28 C 7.256296 5.595734 -14.866814 0
M  V30 29 C 7.114264 8.695198 -21.839785 0
M  V30 30 O 10.975496 6.790296 -4.884867 0
M  V30 31 C 8.826054 4.454113 -16.048080 0
M  V30 32 O 6.148909 7.189866 -18.861037 0
M  V30 33 C 6.318543 6.790200 -13.000318 0
M  V30 34 C 6.035940 7.848169 -21.164974 0 CFG=1
M  V30 35 H 11.108157 7.284218 -8.873240 0
M  V30 36 H 10.218021 4.582830 -14.484299 0
M  V30 37 H 5.448136 5.413294 -18.090735 0
M  V30 38 H 5.541718 6.801950 -17.008869 0
M  V30 39 H 4.327747 7.170452 -22.409774 0
M  V30 40 H 5.888579 6.339510 -22.756475 0
M  V30 41 H 8.457651 8.036102 -8.788333 0
M  V30 42 H 7.677832 6.354106 -9.529350 0
M  V30 43 H 10.175412 5.096290 -9.578092 0
M  V30 44 H 7.723452 5.042283 -19.734921 0
M  V30 45 H 7.913455 5.662686 -21.336380 0
M  V30 46 H 9.984331 8.241865 -5.942150 0
M  V30 47 H 11.634515 7.924091 -6.454352 0
M  V30 48 H 7.205638 10.058939 -23.208599 0
M  V30 49 H 5.927132 4.067243 -21.436594 0
M  V30 50 H 5.115626 3.958262 -19.880289 0
M  V30 51 H 4.175748 4.124635 -21.354052 0
M  V30 52 H 11.184522 6.152097 -13.740560 0
M  V30 53 H 10.822731 7.590216 -12.787213 0
M  V30 54 H 11.910714 6.389326 -12.161523 0
M  V30 55 H 6.637696 4.111853 -16.405838 0
M  V30 56 H 10.006746 4.799493 -11.857460 0
M  V30 57 H 9.859099 6.142381 -19.814244 0
M  V30 58 H 9.205412 7.603717 -20.516723 0
M  V30 59 H 8.840009 7.190177 -18.845699 0
M  V30 60 H 5.242064 6.389422 -14.860611 0
M  V30 61 H 4.256722 6.316432 -20.171641 0
M  V30 62 H 7.712288 9.227398 -21.101248 0
M  V30 63 H 7.791393 8.074895 -22.428005 0
M  V30 64 H 10.249321 6.206687 -4.714310 0
M  V30 65 H 5.506197 7.319918 -12.524436 0
M  V30 66 H 5.308568 8.502372 -20.678131 0
M  V30 END ATOM
M  V30 BEGIN BOND
M  V30 1 1 3 1
M  V30 2 1 7 1
M  V30 3 1 9 4
M  V30 4 1 11 1
M  V30 5 1 11 10
M  V30 6 1 12 6
M  V30 7 1 13 3
M  V30 8 1 16 2
M  V30 9 1 17 3
M  V30 10 1 19 9
M  V30 11 1 20 18
M  V30 12 1 21 16
M  V30 13 1 21 20
M  V30 14 2 22 21
M  V30 15 1 23 11
M  V30 16 1 23 20
M  V30 17 1 24 12
M  V30 18 1 25 3
M  V30 19 1 27 5
M  V30 20 1 27 6
M  V30 21 1 27 15
M  V30 22 2 28 16
M  V30 23 1 28 19
M  V30 24 1 28 26
M  V30 25 1 29 14
M  V30 26 1 30 13
M  V30 27 1 31 2
M  V30 28 2 31 8
M  V30 29 1 31 19
M  V30 30 1 32 4
M  V30 31 1 6 32 CFG=1
M  V30 32 1 33 22
M  V30 33 2 33 26
M  V30 34 1 34 5
M  V30 35 1 34 6
M  V30 36 1 34 29
M  V30 37 1 1 35 CFG=3
M  V30 38 1 36 2
M  V30 39 1 37 4
M  V30 40 1 38 4
M  V30 41 1 39 5
M  V30 42 1 40 5
M  V30 43 1 41 7
M  V30 44 1 42 10
M  V30 45 1 11 43 CFG=3
M  V30 46 1 44 12
M  V30 47 1 45 12
M  V30 48 1 46 13
M  V30 49 1 47 13
M  V30 50 1 48 14
M  V30 51 1 49 15
M  V30 52 1 50 15
M  V30 53 1 51 15
M  V30 54 1 52 18
M  V30 55 1 53 18
M  V30 56 1 54 18
M  V30 57 1 19 55 CFG=3
M  V30 58 1 20 56 CFG=1
M  V30 59 1 57 24
M  V30 60 1 58 24
M  V30 61 1 59 24
M  V30 62 1 60 26
M  V30 63 1 27 61 CFG=1
M  V30 64 1 62 29
M  V30 65 1 63 29
M  V30 66 1 64 30
M  V30 67 1 65 33
M  V30 68 1 34 66 CFG=1
M  V30 END BOND
M  V30 END CTAB
M  END
>  <i_epik_Tot_Q>  (1) 
0

>  <i_epik_Tot_abs_Q>  (1) 
0

>  <i_i_glide_confnum>  (1) 
4015

>  <i_i_glide_lignum>  (1) 
106

>  <i_i_glide_posenum>  (1) 
327

>  <i_i_glide_rotatable_bonds>  (1) 
16

>  <i_lp_mmshare_version>  (1) 
72125

>  <i_m_source_file_index>  (1) 
66

>  <i_f3d_flags>  (1) 
0

>  <num_sample>  (1) 
100

>  <b_lp_Chiralities_Consistent>  (1) 
1

>  <r_epik_Charging_Adjusted_Penalty>  (1) 
0

>  <r_epik_Ionization_Penalty>  (1) 
0.020984920231991385

>  <r_epik_Ionization_Penalty_Charging>  (1) 
0

>  <r_epik_Ionization_Penalty_Neutral>  (1) 
0.020984920231991385

>  <r_epik_State_Penalty>  (1) 
-0

>  <r_glide_ring_energy>  (1) 
0

>  <r_i_docking_score>  (1) 
-5.4908507271696596

>  <r_i_glide_ecoul>  (1) 
-10.562308317954596

>  <r_i_glide_eff_state_penalty>  (1) 
-0

>  <r_i_glide_einternal>  (1) 
8.4243488825337387

>  <r_i_glide_emodel>  (1) 
-49.185419146519678

>  <r_i_glide_emodel_strain>  (1) 
2.2305706242249954

>  <r_i_glide_energy>  (1) 
-42.157332503516841

>  <r_i_glide_erotb>  (1) 
0.93044466926125857

>  <r_i_glide_esite>  (1) 
-0.11121192280230492

>  <r_i_glide_evdw>  (1) 
-31.595024185562249

>  <r_i_glide_gscore>  (1) 
-5.4908507271696596

>  <r_i_glide_gscore_strain>  (1) 
0

>  <r_i_glide_hbond>  (1) 
-0.45054937519238264

>  <r_i_glide_ligand_efficiency>  (1) 
-0.16149560962263704

>  <r_i_glide_ligand_efficiency_ln>  (1) 
-1.2130829387779021

>  <r_i_glide_ligand_efficiency_sa>  (1) 
-0.52318308278799652

>  <r_i_glide_lipo>  (1) 
-1.8224996890465728

>  <r_i_glide_metal>  (1) 
-0

>  <r_i_glide_rewards>  (1) 
-0.872936952418356

>  <r_lp_Energy>  (1) 
35.882733000000002

>  <r_lp_tautomer_probability>  (1) 
1

>  <s_epik_Chemistry_Notes>  (1) 
This compound contains an acetal/aminal-like group ( X-CH(R)-Y where X, Y are N, S, or O) that may be acid/base labile, releasing an aldehyde.

>  <s_epik_cmdline>  (1) 
J2VwaWtfcHl0aG9uJywgJy1waHQnLCAnMS4wJywgJy1waCcsICc3LjQnLCAnLXRuJywgJzgnLCAnLW1hJywgJzUwMCcsICctaW1hZScsICc8aW5maWxlLm1hZT4nLCAnLW9tYWUnLCAnPG91dGZpbGUubWFlPic=

>  <s_epik_input>  (1) 
W09IXVtDSDJdQyhGKShGKVtDQEhdKFtPSF0pW0NAQEhdKFtPSF0pT1tDQEhdKFtDSDNdKWMxbltjSF1bY0hdYyhjMTIpW0NASF0oQyg9TylbTkhdMilPW0NIMl1PW0NAQF0zKFtDSDJdW0NIM10pW0NASF0oW0NIM10pW0NIMl1bQ0BASF0zW0NIMl1bT0hd

>  <s_glide_docking_method>  (1) 
confgen

>  <s_i_glide_gridfile>  (1) 
gpcr_drd2_6luq_protein_autoprepared_prepared

>  <s_lp_Force_Field>  (1) 
S-OPLS

>  <s_lp_Variant>  (1) 
DiffSBDD_65-1

>  <s_m_source_file>  (1) 
generated_generic_title2_ligand_DiffSBDD_2026-06-23_prepared.sdf

>  <GenAI_Model>  (1) 
DiffSBDD

>  <Protein>  (1) 
generic_title2

$$$$
DiffSBDD_18
     RDKit          3D

  0  0  0  0  0  0  0  0  0  0999 V3000
M  V30 BEGIN CTAB
M  V30 COUNTS 38 39 0 0 1
M  V30 BEGIN ATOM
M  V30 1 C 11.815319 9.073608 -4.271151 0
M  V30 2 C 12.249511 8.947892 -2.940646 0
M  V30 3 O 10.895713 9.190227 -6.942700 0
M  V30 4 S 10.997654 7.681402 -9.607394 0
M  V30 5 C 6.910386 6.066544 -15.167298 0
M  V30 6 C 10.349917 7.041968 -11.182329 0
M  V30 7 N 8.975348 6.869234 -11.188081 0
M  V30 8 C 6.559243 7.200498 -14.189544 0
M  V30 9 C 10.888345 8.093616 -6.403779 0
M  V30 10 C 6.942068 5.616131 -12.106936 0 CFG=2
M  V30 11 C 11.375393 6.670298 -4.352404 0
M  V30 12 C 8.255026 6.349764 -12.313369 0 CFG=1
M  V30 13 N 10.445675 6.973255 -7.006372 0
M  V30 14 C 11.375410 7.936420 -4.985769 0
M  V30 15 C 11.814392 6.552995 -3.018391 0
M  V30 16 C 12.253341 7.689876 -2.316265 0
M  V30 17 O 11.106718 6.797148 -12.120453 0
M  V30 18 C 9.865511 6.976301 -8.358904 0
M  V30 19 C 6.938222 6.988755 -12.725917 0 CFG=1
M  V30 20 O 6.455259 5.590229 -10.785017 0
M  V30 21 H 11.810822 10.045378 -4.744394 0
M  V30 22 H 12.576019 9.819435 -2.397034 0
M  V30 23 H 6.597855 6.330101 -16.178147 0
M  V30 24 H 7.982650 5.879159 -15.205855 0
M  V30 25 H 6.406759 5.135012 -14.912134 0
M  V30 26 H 8.466102 7.131569 -10.348479 0
M  V30 27 H 5.486705 7.391007 -14.236317 0
M  V30 28 H 7.048436 8.110110 -14.536385 0
M  V30 29 H 6.722551 4.724614 -12.690801 0
M  V30 30 H 11.036684 5.792614 -4.879300 0
M  V30 31 H 8.871433 5.950645 -13.116919 0
M  V30 32 H 10.465236 6.100044 -6.502731 0
M  V30 33 H 11.812446 5.590208 -2.533315 0
M  V30 34 H 12.590643 7.597148 -1.295460 0
M  V30 35 H 8.964248 7.577812 -8.344475 0
M  V30 36 H 9.593615 5.954498 -8.624940 0
M  V30 37 H 6.598863 7.803847 -12.087508 0
M  V30 38 H 6.575520 6.450162 -10.374452 0
M  V30 END ATOM
M  V30 BEGIN BOND
M  V30 1 1 2 1
M  V30 2 1 6 4
M  V30 3 1 7 6
M  V30 4 1 8 5
M  V30 5 2 9 3
M  V30 6 1 12 7
M  V30 7 1 12 10
M  V30 8 1 13 9
M  V30 9 2 14 1
M  V30 10 1 14 9
M  V30 11 1 14 11
M  V30 12 2 15 11
M  V30 13 2 16 2
M  V30 14 1 16 15
M  V30 15 2 17 6
M  V30 16 1 18 4
M  V30 17 1 18 13
M  V30 18 1 19 8
M  V30 19 1 19 10
M  V30 20 1 19 12
M  V30 21 1 20 10
M  V30 22 1 21 1
M  V30 23 1 22 2
M  V30 24 1 23 5
M  V30 25 1 24 5
M  V30 26 1 25 5
M  V30 27 1 26 7
M  V30 28 1 27 8
M  V30 29 1 28 8
M  V30 30 1 10 29 CFG=3
M  V30 31 1 30 11
M  V30 32 1 12 31 CFG=3
M  V30 33 1 32 13
M  V30 34 1 33 15
M  V30 35 1 34 16
M  V30 36 1 35 18
M  V30 37 1 36 18
M  V30 38 1 19 37 CFG=1
M  V30 39 1 38 20
M  V30 END BOND
M  V30 END CTAB
M  END
>  <i_epik_Tot_Q>  (1) 
0

>  <i_epik_Tot_abs_Q>  (1) 
0

>  <i_i_glide_confnum>  (1) 
13

>  <i_i_glide_lignum>  (1) 
35

>  <i_i_glide_posenum>  (1) 
210

>  <i_i_glide_rotatable_bonds>  (1) 
9

>  <i_lp_mmshare_version>  (1) 
72125

>  <i_m_source_file_index>  (1) 
19

>  <i_f3d_flags>  (1) 
0

>  <num_sample>  (1) 
100

>  <b_lp_Chiralities_Consistent>  (1) 
1

>  <r_epik_Charging_Adjusted_Penalty>  (1) 
0

>  <r_epik_Ionization_Penalty>  (1) 
2.0525633642560989e-05

>  <r_epik_Ionization_Penalty_Charging>  (1) 
0

>  <r_epik_Ionization_Penalty_Neutral>  (1) 
2.0525633642560989e-05

>  <r_epik_State_Penalty>  (1) 
-0

>  <r_glide_ring_energy>  (1) 
0

>  <r_i_docking_score>  (1) 
-5.4883257830141883

>  <r_i_glide_ecoul>  (1) 
-9.7890604612355308

>  <r_i_glide_eff_state_penalty>  (1) 
-0

>  <r_i_glide_einternal>  (1) 
5.7844538422982463

>  <r_i_glide_emodel>  (1) 
-56.204794713893726

>  <r_i_glide_emodel_strain>  (1) 
0.6526203976270466

>  <r_i_glide_energy>  (1) 
-43.695342692598615

>  <r_i_glide_erotb>  (1) 
2.5324251451788915

>  <r_i_glide_esite>  (1) 
-0.11477859859380589

>  <r_i_glide_evdw>  (1) 
-33.906282231363086

>  <r_i_glide_gscore>  (1) 
-5.4883257830141883

>  <r_i_glide_gscore_strain>  (1) 
0

>  <r_i_glide_hbond>  (1) 
-0.30399999999999999

>  <r_i_glide_ligand_efficiency>  (1) 
-0.27441628915070942

>  <r_i_glide_ligand_efficiency_ln>  (1) 
-1.3735469263891935

>  <r_i_glide_ligand_efficiency_sa>  (1) 
-0.74488040955128743

>  <r_i_glide_lipo>  (1) 
-2.1868998766911543

>  <r_i_glide_metal>  (1) 
-0

>  <r_i_glide_rewards>  (1) 
-2.2513992721546359

>  <r_lp_Energy>  (1) 
17.985703999999998

>  <r_lp_tautomer_probability>  (1) 
1

>  <s_epik_Chemistry_Notes>  (1) 
This compound contains an acetal/aminal-like group ( X-CH(R)-Y where X, Y are N, S, or O) that may be acid/base labile, releasing an aldehyde.

>  <s_epik_cmdline>  (1) 
J2VwaWtfcHl0aG9uJywgJy1waHQnLCAnMS4wJywgJy1waCcsICc3LjQnLCAnLXRuJywgJzgnLCAnLW1hJywgJzUwMCcsICctaW1hZScsICc8aW5maWxlLm1hZT4nLCAnLW9tYWUnLCAnPG91dGZpbGUubWFlPic=

>  <s_epik_input>  (1) 
W2NIXTFbY0hdW2NIXVtjSF1bY0hdYzFDKD1PKVtOSF1bQ0gyXVNDKD1PKVtOSF1bQ0BASF0oW0NIXTJbT0hdKVtDQEhdMltDSDJdW0NIM10=

>  <s_glide_docking_method>  (1) 
confgen

>  <s_i_glide_gridfile>  (1) 
gpcr_drd2_6luq_protein_autoprepared_prepared

>  <s_lp_Force_Field>  (1) 
S-OPLS

>  <s_lp_Variant>  (1) 
DiffSBDD_18-2

>  <s_m_source_file>  (1) 
generated_generic_title2_ligand_DiffSBDD_2026-06-23_prepared.sdf

>  <GenAI_Model>  (1) 
DiffSBDD

>  <Protein>  (1) 
generic_title2

$$$$
DiffSBDD_64
     RDKit          3D

  0  0  0  0  0  0  0  0  0  0999 V3000
M  V30 BEGIN CTAB
M  V30 COUNTS 77 80 0 0 1
M  V30 BEGIN ATOM
M  V30 1 C 9.191333 5.524220 -9.545215 0
M  V30 2 C 5.647974 5.438204 -19.511374 0
M  V30 3 C 9.597677 6.426875 -7.205912 0 CFG=2
M  V30 4 C 6.244936 6.260497 -13.705840 0
M  V30 5 C 8.806815 6.920884 -20.443282 0
M  V30 6 C 10.657875 8.011150 -5.396645 0
M  V30 7 C 6.547541 4.950248 -12.945431 0 CFG=1
M  V30 8 O 6.129842 5.159210 -21.795303 0
M  V30 9 C 9.810182 8.789865 -7.663130 0
M  V30 10 C 10.975123 5.748214 -7.094415 0
M  V30 11 C 5.994102 6.031535 -15.210669 0
M  V30 12 C 7.937418 7.799053 -21.337846 0
M  V30 13 C 6.511227 7.369488 -20.988643 0
M  V30 14 C 11.274475 7.926769 -9.544531 0
M  V30 15 N 9.206503 6.699727 -8.615214 0 CFG=1 CHG=1
M  V30 16 C 9.004007 6.913037 -11.808362 0
M  V30 17 C 6.593307 5.861799 -20.656750 0 CFG=1
M  V30 18 C 9.610300 7.804981 -6.518487 0 CFG=1
M  V30 19 C 9.833685 7.996880 -8.977318 0 CFG=1
M  V30 20 C 7.636783 4.138321 -13.661447 0
M  V30 21 C 7.255718 3.907467 -15.124613 0
M  V30 22 C 6.009112 5.925365 -18.093591 0
M  V30 23 C 8.396239 5.005336 -17.921429 0
M  V30 24 C 8.524334 4.548019 -19.387328 0
M  V30 25 C 8.105774 5.554881 -20.481142 0 CFG=2
M  V30 26 S 6.881459 5.190149 -11.159278 0
M  V30 27 N 7.056756 5.193849 -15.850588 0 CFG=1 CHG=1
M  V30 28 C 6.969424 4.972079 -17.335265 0 CFG=1
M  V30 29 C 8.647939 5.651309 -11.005429 0 CFG=2
M  V30 30 H 8.608698 4.748945 -9.046627 0
M  V30 31 H 10.175406 5.103361 -9.604084 0
M  V30 32 H 4.651592 5.810525 -19.756366 0
M  V30 33 H 5.538649 4.352352 -19.502188 0
M  V30 34 H 8.842057 5.786669 -6.749120 0
M  V30 35 H 5.375784 6.746551 -13.260944 0
M  V30 36 H 7.046709 6.982983 -13.611140 0
M  V30 37 H 9.841830 6.871575 -20.782878 0
M  V30 38 H 8.808062 7.340787 -19.440126 0
M  V30 39 H 11.674788 7.964113 -5.785060 0
M  V30 40 H 10.575298 8.990915 -4.927496 0
M  V30 41 H 10.575184 7.248427 -4.622117 0
M  V30 42 H 5.631252 4.357854 -12.974015 0
M  V30 43 H 6.641391 5.423825 -22.545243 0
M  V30 44 H 10.747340 9.326584 -7.515646 0
M  V30 45 H 8.975405 9.494297 -7.654043 0
M  V30 46 H 11.244395 5.590193 -6.052422 0
M  V30 47 H 11.000284 4.790328 -7.592280 0
M  V30 48 H 11.775262 6.348912 -7.506095 0
M  V30 49 H 5.959490 7.010691 -15.689442 0
M  V30 50 H 5.009825 5.589874 -15.345130 0
M  V30 51 H 8.148587 7.579620 -22.385467 0
M  V30 52 H 8.106283 8.865356 -21.184882 0
M  V30 53 H 5.805176 7.599240 -21.788499 0
M  V30 54 H 6.181582 7.936458 -20.117782 0
M  V30 55 H 11.453994 8.765782 -10.216988 0
M  V30 56 H 12.042331 8.002098 -8.776658 0
M  V30 57 H 11.473728 7.016363 -10.100440 0
M  V30 58 H 10.025603 7.239054 -11.663313 0
M  V30 59 H 8.959281 6.717438 -12.873850 0
M  V30 60 H 8.327094 7.738727 -11.585991 0
M  V30 61 H 8.617144 7.979292 -6.102322 0
M  V30 62 H 9.200425 8.511576 -9.697294 0
M  V30 63 H 7.774538 3.179642 -13.159358 0
M  V30 64 H 8.600621 4.642661 -13.636023 0
M  V30 65 H 6.349685 3.306859 -15.175951 0
M  V30 66 H 8.040674 3.317559 -15.597700 0
M  V30 67 H 5.053197 5.974822 -17.574739 0
M  V30 68 H 6.398492 6.942920 -18.106605 0
M  V30 69 H 9.025320 4.329738 -17.341421 0
M  V30 70 H 8.844627 5.986351 -17.773908 0
M  V30 71 H 7.991687 3.606628 -19.530743 0
M  V30 72 H 9.574322 4.307142 -19.560722 0
M  V30 73 H 8.449902 5.103312 -21.414013 0
M  V30 74 H 6.575411 3.965937 -17.489431 0
M  V30 75 H 9.165506 4.836382 -11.509648 0
M  V30 76 H 7.908298 5.720773 -15.718557 0
M  V30 77 H 8.221767 6.968097 -8.583071 0
M  V30 END ATOM
M  V30 BEGIN BOND
M  V30 1 1 7 4
M  V30 2 1 10 3
M  V30 3 1 11 4
M  V30 4 1 12 5
M  V30 5 1 13 12
M  V30 6 1 15 1
M  V30 7 1 15 3
M  V30 8 1 17 2
M  V30 9 1 17 8 CFG=3
M  V30 10 1 17 13
M  V30 11 1 18 3
M  V30 12 1 18 6
M  V30 13 1 18 9
M  V30 14 1 19 9
M  V30 15 1 19 14
M  V30 16 1 19 15
M  V30 17 1 20 7
M  V30 18 1 21 20
M  V30 19 1 22 2
M  V30 20 1 24 23
M  V30 21 1 25 5
M  V30 22 1 25 17
M  V30 23 1 25 24
M  V30 24 1 26 7
M  V30 25 1 27 11
M  V30 26 1 27 21
M  V30 27 1 28 22
M  V30 28 1 28 23
M  V30 29 1 28 27
M  V30 30 1 29 1
M  V30 31 1 29 16
M  V30 32 1 29 26
M  V30 33 1 30 1
M  V30 34 1 31 1
M  V30 35 1 32 2
M  V30 36 1 33 2
M  V30 37 1 3 34 CFG=1
M  V30 38 1 35 4
M  V30 39 1 36 4
M  V30 40 1 37 5
M  V30 41 1 38 5
M  V30 42 1 39 6
M  V30 43 1 40 6
M  V30 44 1 41 6
M  V30 45 1 7 42 CFG=1
M  V30 46 1 43 8
M  V30 47 1 44 9
M  V30 48 1 45 9
M  V30 49 1 46 10
M  V30 50 1 47 10
M  V30 51 1 48 10
M  V30 52 1 49 11
M  V30 53 1 50 11
M  V30 54 1 51 12
M  V30 55 1 52 12
M  V30 56 1 53 13
M  V30 57 1 54 13
M  V30 58 1 55 14
M  V30 59 1 56 14
M  V30 60 1 57 14
M  V30 61 1 58 16
M  V30 62 1 59 16
M  V30 63 1 60 16
M  V30 64 1 18 61 CFG=1
M  V30 65 1 19 62 CFG=3
M  V30 66 1 63 20
M  V30 67 1 64 20
M  V30 68 1 65 21
M  V30 69 1 66 21
M  V30 70 1 67 22
M  V30 71 1 68 22
M  V30 72 1 69 23
M  V30 73 1 70 23
M  V30 74 1 71 24
M  V30 75 1 72 24
M  V30 76 1 25 73 CFG=3
M  V30 77 1 28 74 CFG=1
M  V30 78 1 29 75 CFG=3
M  V30 79 1 27 76 CFG=3
M  V30 80 1 15 77 CFG=1
M  V30 END BOND
M  V30 END CTAB
M  END
>  <i_epik_Tot_Q>  (1) 
2

>  <i_epik_Tot_abs_Q>  (1) 
2

>  <i_i_glide_confnum>  (1) 
137

>  <i_i_glide_lignum>  (1) 
104

>  <i_i_glide_posenum>  (1) 
175

>  <i_i_glide_rotatable_bonds>  (1) 
6

>  <i_lp_mmshare_version>  (1) 
72125

>  <i_m_source_file_index>  (1) 
65

>  <i_f3d_flags>  (1) 
0

>  <num_sample>  (1) 
100

>  <b_lp_Chiralities_Consistent>  (1) 
1

>  <r_epik_Charging_Adjusted_Penalty>  (1) 
0.010385271147369776

>  <r_epik_Ionization_Penalty>  (1) 
0.010385491156522124

>  <r_epik_Ionization_Penalty_Charging>  (1) 
0.010385271147369776

>  <r_epik_Ionization_Penalty_Neutral>  (1) 
2.2000915234807092e-07

>  <r_epik_State_Penalty>  (1) 
-0

>  <r_glide_ring_energy>  (1) 
0.15487863939553237

>  <r_i_docking_score>  (1) 
-5.4875196715388883

>  <r_i_glide_ecoul>  (1) 
-4.3927141728474366

>  <r_i_glide_eff_state_penalty>  (1) 
-0

>  <r_i_glide_einternal>  (1) 
25.52666091044685

>  <r_i_glide_emodel>  (1) 
-21.773442723812323

>  <r_i_glide_emodel_strain>  (1) 
3.5400362979369646

>  <r_i_glide_energy>  (1) 
-29.774352205500332

>  <r_i_glide_erotb>  (1) 
0.38474261442252755

>  <r_i_glide_esite>  (1) 
-0.10000000000000001

>  <r_i_glide_evdw>  (1) 
-25.381638032652894

>  <r_i_glide_gscore>  (1) 
-5.4875196715388883

>  <r_i_glide_gscore_strain>  (1) 
0

>  <r_i_glide_hbond>  (1) 
-0.23470340963053174

>  <r_i_glide_ligand_efficiency>  (1) 
-0.18922481625996165

>  <r_i_glide_ligand_efficiency_ln>  (1) 
-1.2565028532898543

>  <r_i_glide_ligand_efficiency_sa>  (1) 
-0.58135858683279318

>  <r_i_glide_lipo>  (1) 
-1.6664205987711223

>  <r_i_glide_metal>  (1) 
-0

>  <r_i_glide_rewards>  (1) 
-1.9431492500000007

>  <r_lp_Energy>  (1) 
54.489440999999999

>  <r_lp_tautomer_probability>  (1) 
1

>  <s_epik_cmdline>  (1) 
J2VwaWtfcHl0aG9uJywgJy1waHQnLCAnMS4wJywgJy1waCcsICc3LjQnLCAnLXRuJywgJzgnLCAnLW1hJywgJzUwMCcsICctaW1hZScsICc8aW5maWxlLm1hZT4nLCAnLW9tYWUnLCAnPG91dGZpbGUubWFlPic=

>  <s_epik_input>  (1) 
W0NIM11bQ0BIXTFbQ0gyXVtDQEBIXShbQ0gzXSlOKFtDQEhdMVtDSDNdKVtDSDJdW0NASF0oW0NIM10pU1tDSF0yW0NIMl1bQ0gyXU4oW0NIMl1bQ0gyXTIpW0NAQEhdKFtDSDJdW0NIMl0zKVtDSDJdW0NIMl1bQ0BASF0oW0NAQF0zNFtPSF0pW0NIMl1bQ0gyXVtDSDJdNA==

>  <s_glide_docking_method>  (1) 
confgen

>  <s_i_glide_gridfile>  (1) 
gpcr_drd2_6luq_protein_autoprepared_prepared

>  <s_lp_Force_Field>  (1) 
S-OPLS

>  <s_lp_Variant>  (1) 
DiffSBDD_64-3

>  <s_m_source_file>  (1) 
generated_generic_title2_ligand_DiffSBDD_2026-06-23_prepared.sdf

>  <GenAI_Model>  (1) 
DiffSBDD

>  <Protein>  (1) 
generic_title2

$$$$
DiffSBDD_91
     RDKit          3D

  0  0  0  0  0  0  0  0  0  0999 V3000
M  V30 BEGIN CTAB
M  V30 COUNTS 54 54 0 0 1
M  V30 BEGIN ATOM
M  V30 1 O 11.669447 10.387533 -5.985090 0 CHG=-1
M  V30 2 C 6.312402 5.937331 -16.220457 0
M  V30 3 O 7.581347 3.200906 -14.582412 0
M  V30 4 F 5.514596 6.148210 -17.267993 0
M  V30 5 C 7.452354 3.998589 -17.492644 0
M  V30 6 C 8.267742 4.192058 -14.334314 0
M  V30 7 O 7.621476 7.040466 -13.005178 0
M  V30 8 C 11.431068 9.198010 -5.682326 0
M  V30 9 C 10.486732 8.499960 -6.669158 0 CFG=1
M  V30 10 C 9.933924 7.715363 -9.035000 0
M  V30 11 C 11.775409 8.371086 -4.731290 0
M  V30 12 C 8.645815 5.174839 -15.474672 0 CFG=2
M  V30 13 O 11.375432 6.150185 -4.129202 0
M  V30 14 N 9.091360 7.669463 -11.396887 0
M  V30 15 C 9.553702 5.635410 -12.743549 0
M  V30 16 C 12.710574 8.649682 -3.565113 0
M  V30 17 F 5.663107 5.215252 -15.310881 0
M  V30 18 C 12.006129 8.732417 -2.205665 0
M  V30 19 C 11.020526 8.308442 -8.110334 0
M  V30 20 C 7.642889 5.283714 -16.658035 0 CFG=2
M  V30 21 C 11.209276 7.109719 -4.872204 0
M  V30 22 O 10.409617 7.137368 -6.014784 0
M  V30 23 N 8.726093 4.458390 -13.076225 0
M  V30 24 C 8.394318 3.557524 -11.984954 0
M  V30 25 O 12.975409 8.790226 -1.185331 0
M  V30 26 C 10.294812 7.673743 -10.543630 0
M  V30 27 O 8.276083 8.790231 -11.185039 0
M  V30 28 O 9.928741 4.846679 -15.984915 0
M  V30 29 C 8.670071 6.844633 -12.385020 0
M  V30 30 H 6.485993 6.913081 -15.764211 0
M  V30 31 H 6.975403 3.194599 -16.939486 0
M  V30 32 H 6.836385 4.194185 -18.370257 0
M  V30 33 H 8.409537 3.621686 -17.852198 0
M  V30 34 H 9.505978 8.976675 -6.664960 0
M  V30 35 H 9.044366 8.324764 -8.879021 0
M  V30 36 H 9.659242 6.714877 -8.700839 0
M  V30 37 H 8.672558 6.183024 -15.090691 0
M  V30 38 H 10.261282 5.902909 -13.526959 0
M  V30 39 H 10.175384 5.336303 -11.905080 0
M  V30 40 H 13.431670 7.835118 -3.538186 0
M  V30 41 H 13.271465 9.565722 -3.757022 0
M  V30 42 H 11.375413 9.618551 -2.158340 0
M  V30 43 H 11.376271 7.861442 -2.023912 0
M  V30 44 H 11.907438 7.675030 -8.103512 0
M  V30 45 H 11.339420 9.272965 -8.504786 0
M  V30 46 H 8.090294 5.990223 -17.356683 0
M  V30 47 H 7.329718 3.316915 -11.985428 0
M  V30 48 H 8.964253 2.632305 -12.079291 0
M  V30 49 H 8.620156 3.990858 -11.009780 0
M  V30 50 H 13.375297 9.659271 -1.203674 0
M  V30 51 H 10.975650 6.851673 -10.738151 0
M  V30 52 H 10.859194 8.572172 -10.785032 0
M  V30 53 H 7.706944 8.492991 -10.460413 0
M  V30 54 H 10.549287 4.821843 -15.269587 0
M  V30 END ATOM
M  V30 BEGIN BOND
M  V30 1 1 4 2
M  V30 2 2 6 3
M  V30 3 1 8 1
M  V30 4 1 9 8
M  V30 5 2 11 8
M  V30 6 1 12 6
M  V30 7 1 16 11
M  V30 8 1 17 2
M  V30 9 1 18 16
M  V30 10 1 19 9
M  V30 11 1 19 10
M  V30 12 1 20 2
M  V30 13 1 20 5
M  V30 14 1 20 12
M  V30 15 1 21 11
M  V30 16 2 21 13
M  V30 17 1 22 9
M  V30 18 1 22 21
M  V30 19 1 23 6
M  V30 20 1 23 15
M  V30 21 1 24 23
M  V30 22 1 25 18
M  V30 23 1 26 10
M  V30 24 1 26 14
M  V30 25 1 27 14
M  V30 26 1 28 12
M  V30 27 2 29 7
M  V30 28 1 29 14
M  V30 29 1 29 15
M  V30 30 1 30 2
M  V30 31 1 31 5
M  V30 32 1 32 5
M  V30 33 1 33 5
M  V30 34 1 9 34 CFG=3
M  V30 35 1 35 10
M  V30 36 1 36 10
M  V30 37 1 12 37 CFG=1
M  V30 38 1 38 15
M  V30 39 1 39 15
M  V30 40 1 40 16
M  V30 41 1 41 16
M  V30 42 1 42 18
M  V30 43 1 43 18
M  V30 44 1 44 19
M  V30 45 1 45 19
M  V30 46 1 20 46 CFG=3
M  V30 47 1 47 24
M  V30 48 1 48 24
M  V30 49 1 49 24
M  V30 50 1 50 25
M  V30 51 1 51 26
M  V30 52 1 52 26
M  V30 53 1 53 27
M  V30 54 1 54 28
M  V30 END BOND
M  V30 END CTAB
M  END
>  <i_epik_Tot_Q>  (1) 
-1

>  <i_epik_Tot_abs_Q>  (1) 
1

>  <i_i_glide_confnum>  (1) 
999

>  <i_i_glide_lignum>  (1) 
174

>  <i_i_glide_posenum>  (1) 
120

>  <i_i_glide_rotatable_bonds>  (1) 
16

>  <i_lp_mmshare_version>  (1) 
72125

>  <i_m_source_file_index>  (1) 
92

>  <i_f3d_flags>  (1) 
0

>  <num_sample>  (1) 
100

>  <b_lp_Chiralities_Consistent>  (1) 
1

>  <r_epik_Charging_Adjusted_Penalty>  (1) 
7.0624640006874639e-05

>  <r_epik_Ionization_Penalty>  (1) 
0.026986969757343576

>  <r_epik_Ionization_Penalty_Charging>  (1) 
7.0624640006874639e-05

>  <r_epik_Ionization_Penalty_Neutral>  (1) 
0.026916345117336701

>  <r_epik_State_Penalty>  (1) 
-0

>  <r_glide_ring_energy>  (1) 
0

>  <r_i_docking_score>  (1) 
-5.4860212430990973

>  <r_i_glide_ecoul>  (1) 
-12.491551143704275

>  <r_i_glide_eff_state_penalty>  (1) 
-0

>  <r_i_glide_einternal>  (1) 
10.182503222332446

>  <r_i_glide_emodel>  (1) 
-41.864540983348917

>  <r_i_glide_emodel_strain>  (1) 
7.3895151641063848

>  <r_i_glide_energy>  (1) 
-41.190914497734866

>  <r_i_glide_erotb>  (1) 
1.3267024169305881

>  <r_i_glide_esite>  (1) 
-0.10883873451890072

>  <r_i_glide_evdw>  (1) 
-28.699363354030591

>  <r_i_glide_gscore>  (1) 
-5.4860212430990973

>  <r_i_glide_gscore_strain>  (1) 
0.84737879102659619

>  <r_i_glide_hbond>  (1) 
-0.41948383320214461

>  <r_i_glide_ligand_efficiency>  (1) 
-0.18917314631376198

>  <r_i_glide_ligand_efficiency_ln>  (1) 
-1.256159751174009

>  <r_i_glide_ligand_efficiency_sa>  (1) 
-0.58119984038770167

>  <r_i_glide_lipo>  (1) 
-2.2059706623129141

>  <r_i_glide_metal>  (1) 
-0

>  <r_i_glide_rewards>  (1) 
-1.6171083817651519

>  <r_lp_Energy>  (1) 
6.6003359999999995

>  <r_lp_tautomer_probability>  (1) 
1

>  <s_epik_Chemistry_Notes>  (1) 
This compound has an ester and may undergo hydrolysis at high or low pH. This compound has a N-S or N-O group and may undergo hydrolysis at high or low pH.

>  <s_epik_cmdline>  (1) 
J2VwaWtfcHl0aG9uJywgJy1waHQnLCAnMS4wJywgJy1waCcsICc3LjQnLCAnLXRuJywgJzgnLCAnLW1hJywgJzUwMCcsICctaW1hZScsICc8aW5maWxlLm1hZT4nLCAnLW9tYWUnLCAnPG91dGZpbGUubWFlPic=

>  <s_epik_input>  (1) 
W09IXVtDSDJdW0NIMl1bQ0BASF0xQyg9TylPW0NAQEhdKEMxPU8pW0NIMl1bQ0gyXVtDSDJdTihbT0hdKUMoPU8pW0NIMl1OKFtDSDNdKUMoPU8pW0NAQEhdKFtPSF0pW0NASF0oW0NIXShGKUYpW0NIM10=

>  <s_glide_docking_method>  (1) 
confgen

>  <s_i_glide_gridfile>  (1) 
gpcr_drd2_6luq_protein_autoprepared_prepared

>  <s_lp_Force_Field>  (1) 
S-OPLS

>  <s_lp_Variant>  (1) 
DiffSBDD_91-1

>  <s_m_source_file>  (1) 
generated_generic_title2_ligand_DiffSBDD_2026-06-23_prepared.sdf

>  <GenAI_Model>  (1) 
DiffSBDD

>  <Protein>  (1) 
generic_title2

$$$$
DiffSBDD_93
     RDKit          3D

  0  0  0  0  0  0  0  0  0  0999 V3000
M  V30 BEGIN CTAB
M  V30 COUNTS 69 73 0 0 1
M  V30 BEGIN ATOM
M  V30 1 C 9.858242 7.358450 -7.921934 0 CFG=1
M  V30 2 C 6.975425 2.186840 -14.912516 0
M  V30 3 C 12.213262 7.991505 -3.511611 0
M  V30 4 O 8.684456 1.355248 -19.219038 0
M  V30 5 C 8.341203 5.288723 -8.260595 0
M  V30 6 C 7.395792 4.750743 -9.346168 0
M  V30 7 C 8.600717 3.266929 -16.963930 0
M  V30 8 C 10.964855 8.657748 -9.985015 0
M  V30 9 N 8.975410 6.523230 -8.751150 0 CFG=2 CHG=1
M  V30 10 C 8.402456 4.008001 -15.769882 0
M  V30 11 C 7.210218 1.502785 -16.111578 0
M  V30 12 C 11.775357 8.781037 -6.170526 0
M  V30 13 C 10.422446 6.673881 -6.645681 0 CFG=1
M  V30 14 C 8.053009 1.146136 -18.184988 0
M  V30 15 C 11.463370 7.170515 -4.370106 0
M  V30 16 C 12.124753 9.541100 -9.565135 0
M  V30 17 O 11.243909 5.612179 -7.039778 0
M  V30 18 C 10.784661 7.407967 -9.171983 0 CFG=2
M  V30 19 C 7.575520 3.462140 -14.728505 0
M  V30 20 C 7.975425 2.018716 -17.073602 0
M  V30 21 C 12.744175 9.199679 -3.983161 0
M  V30 22 N 7.306109 0.070523 -17.873332 0
M  V30 23 C 6.634306 0.112075 -16.477742 0
M  V30 24 C 8.355674 5.143523 -13.146909 0
M  V30 25 N 7.342552 4.165381 -13.533987 0
M  V30 26 C 9.918463 6.331534 -9.811681 0 CFG=2
M  V30 27 C 8.188261 5.582096 -11.665313 0 CFG=2
M  V30 28 C 11.230952 7.567549 -5.705428 0
M  V30 29 C 9.328381 6.529961 -11.228943 0
M  V30 30 O 10.975272 5.995309 -3.905170 0
M  V30 31 C 8.993281 8.569199 -7.514515 0
M  V30 32 C 8.008219 4.390278 -10.708137 0
M  V30 33 C 12.527403 9.590224 -5.316257 0
M  V30 34 H 6.349613 1.754163 -14.145263 0
M  V30 35 H 12.387523 7.688146 -2.489247 0
M  V30 36 H 7.775423 5.519027 -7.359697 0
M  V30 37 H 9.071857 4.527782 -7.986235 0
M  V30 38 H 6.975416 3.839927 -8.935395 0
M  V30 39 H 6.575495 5.445617 -9.537441 0
M  V30 40 H 9.213729 3.655959 -17.764158 0
M  V30 41 H 10.023020 9.190217 -9.985062 0
M  V30 42 H 11.153231 8.366766 -11.012154 0
M  V30 43 H 8.866399 4.975262 -15.654569 0
M  V30 44 H 11.623675 9.083752 -7.182858 0
M  V30 45 H 9.595250 6.264700 -6.065648 0
M  V30 46 H 12.575392 10.006880 -10.432283 0
M  V30 47 H 12.917451 8.981742 -9.067886 0
M  V30 48 H 11.775397 10.337372 -8.914538 0
M  V30 49 H 11.624429 5.212374 -6.271685 0
M  V30 50 H 11.762651 6.968228 -8.980772 0
M  V30 51 H 13.326891 9.824998 -3.324248 0
M  V30 52 H 7.183687 -0.714217 -18.496034 0
M  V30 53 H 6.998275 -0.675565 -15.816775 0
M  V30 54 H 5.544377 0.112383 -16.537115 0
M  V30 55 H 9.346248 4.706788 -13.288208 0
M  V30 56 H 8.285924 6.020488 -13.792723 0
M  V30 57 H 6.863096 3.680975 -12.789358 0
M  V30 58 H 10.299295 5.340284 -9.613787 0
M  V30 59 H 7.260387 6.156567 -11.624257 0
M  V30 60 H 8.962900 7.549384 -11.358153 0
M  V30 61 H 10.148285 6.428848 -11.941387 0
M  V30 62 H 10.378773 5.523416 -4.467251 0
M  V30 63 H 9.523895 9.318669 -6.950285 0
M  V30 64 H 8.175417 8.266375 -6.860379 0
M  V30 65 H 8.575416 9.099060 -8.367384 0
M  V30 66 H 8.936683 3.825055 -10.618242 0
M  V30 67 H 7.281191 3.712348 -11.148409 0
M  V30 68 H 12.943592 10.500245 -5.690062 0
M  V30 69 H 8.222243 7.130378 -9.095567 0
M  V30 END ATOM
M  V30 BEGIN BOND
M  V30 1 1 6 5
M  V30 2 1 9 1
M  V30 3 1 9 5
M  V30 4 2 10 7
M  V30 5 1 11 2
M  V30 6 1 13 1
M  V30 7 2 14 4
M  V30 8 2 15 3
M  V30 9 1 16 8
M  V30 10 1 17 13
M  V30 11 1 18 1
M  V30 12 1 18 8
M  V30 13 2 19 2
M  V30 14 1 19 10
M  V30 15 1 20 7
M  V30 16 2 20 11
M  V30 17 1 20 14
M  V30 18 1 21 3
M  V30 19 1 22 14
M  V30 20 1 23 11
M  V30 21 1 23 22
M  V30 22 1 25 19
M  V30 23 1 25 24
M  V30 24 1 26 9
M  V30 25 1 26 18
M  V30 26 1 27 24
M  V30 27 2 28 12
M  V30 28 1 28 13
M  V30 29 1 28 15
M  V30 30 1 29 26
M  V30 31 1 29 27
M  V30 32 1 30 15
M  V30 33 1 1 31 CFG=1
M  V30 34 1 32 6
M  V30 35 1 32 27
M  V30 36 1 33 12
M  V30 37 2 33 21
M  V30 38 1 34 2
M  V30 39 1 35 3
M  V30 40 1 36 5
M  V30 41 1 37 5
M  V30 42 1 38 6
M  V30 43 1 39 6
M  V30 44 1 40 7
M  V30 45 1 41 8
M  V30 46 1 42 8
M  V30 47 1 43 10
M  V30 48 1 44 12
M  V30 49 1 13 45 CFG=1
M  V30 50 1 46 16
M  V30 51 1 47 16
M  V30 52 1 48 16
M  V30 53 1 49 17
M  V30 54 1 18 50 CFG=1
M  V30 55 1 51 21
M  V30 56 1 52 22
M  V30 57 1 53 23
M  V30 58 1 54 23
M  V30 59 1 55 24
M  V30 60 1 56 24
M  V30 61 1 57 25
M  V30 62 1 26 58 CFG=3
M  V30 63 1 27 59 CFG=3
M  V30 64 1 60 29
M  V30 65 1 61 29
M  V30 66 1 62 30
M  V30 67 1 63 31
M  V30 68 1 64 31
M  V30 69 1 65 31
M  V30 70 1 66 32
M  V30 71 1 67 32
M  V30 72 1 68 33
M  V30 73 1 9 69 CFG=3
M  V30 END BOND
M  V30 END CTAB
M  END
>  <i_epik_Tot_Q>  (1) 
1

>  <i_epik_Tot_abs_Q>  (1) 
1

>  <i_i_glide_confnum>  (1) 
108

>  <i_i_glide_lignum>  (1) 
177

>  <i_i_glide_posenum>  (1) 
200

>  <i_i_glide_rotatable_bonds>  (1) 
8

>  <i_lp_mmshare_version>  (1) 
72125

>  <i_m_source_file_index>  (1) 
94

>  <i_f3d_flags>  (1) 
0

>  <num_sample>  (1) 
100

>  <b_lp_Chiralities_Consistent>  (1) 
1

>  <r_epik_Charging_Adjusted_Penalty>  (1) 
0.009895405337619817

>  <r_epik_Ionization_Penalty>  (1) 
0.010018489252536679

>  <r_epik_Ionization_Penalty_Charging>  (1) 
0.00060073207358730301

>  <r_epik_Ionization_Penalty_Neutral>  (1) 
0.0094177571789493767

>  <r_epik_State_Penalty>  (1) 
0.0092946732640325144

>  <r_glide_ring_energy>  (1) 
0

>  <r_i_docking_score>  (1) 
-5.4844478422422096

>  <r_i_glide_ecoul>  (1) 
-9.4813820566404559

>  <r_i_glide_eff_state_penalty>  (1) 
0.0092946732640325144

>  <r_i_glide_einternal>  (1) 
8.9624502361658607

>  <r_i_glide_emodel>  (1) 
-24.964919395307248

>  <r_i_glide_emodel_strain>  (1) 
5.2193332328680526

>  <r_i_glide_energy>  (1) 
-24.727648069218084

>  <r_i_glide_erotb>  (1) 
0.49373930985115227

>  <r_i_glide_esite>  (1) 
-0.10000000000000001

>  <r_i_glide_evdw>  (1) 
-15.246266012577626

>  <r_i_glide_gscore>  (1) 
-5.4937425155062423

>  <r_i_glide_gscore_strain>  (1) 
0.30483330821701315

>  <r_i_glide_hbond>  (1) 
-0.18344992853951797

>  <r_i_glide_ligand_efficiency>  (1) 
-0.16619538915885484

>  <r_i_glide_ligand_efficiency_ln>  (1) 
-1.2197128031635125

>  <r_i_glide_ligand_efficiency_sa>  (1) 
-0.53307741621404314

>  <r_i_glide_lipo>  (1) 
-2.5833854782761962

>  <r_i_glide_metal>  (1) 
-0

>  <r_i_glide_rewards>  (1) 
-1.2409591176337436

>  <r_lp_Energy>  (1) 
49.614931999999996

>  <r_lp_tautomer_probability>  (1) 
0.99999999999736477

>  <s_epik_cmdline>  (1) 
J2VwaWtfcHl0aG9uJywgJy1waHQnLCAnMS4wJywgJy1waCcsICc3LjQnLCAnLXRuJywgJzgnLCAnLW1hJywgJzUwMCcsICctaW1hZScsICc8aW5maWxlLm1hZT4nLCAnLW9tYWUnLCAnPG91dGZpbGUubWFlPic=

>  <s_epik_input>  (1) 
W09IXWMxW2NIXVtjSF1bY0hdW2NIXWMxW0NASF0oW09IXSlbQ0BAXTIoW0NIM10pW0NASF0oW0NIMl1bQ0gzXSlbQ0BASF0oTjIzKVtDSDJdW0NASF0oW0NIMl1bQ0gyXVtDSDJdMylbQ0gyXVtOSF1jKFtjSF00KVtjSF1bY0hdYyhjNDUpQyg9TylbTkhdW0NIMl01

>  <s_glide_docking_method>  (1) 
confgen

>  <s_i_glide_gridfile>  (1) 
gpcr_drd2_6luq_protein_autoprepared_prepared

>  <s_lp_Force_Field>  (1) 
S-OPLS

>  <s_lp_Variant>  (1) 
DiffSBDD_93-2

>  <s_m_source_file>  (1) 
generated_generic_title2_ligand_DiffSBDD_2026-06-23_prepared.sdf

>  <GenAI_Model>  (1) 
DiffSBDD

>  <Protein>  (1) 
generic_title2

$$$$
DiffSBDD_66
     RDKit          3D

  0  0  0  0  0  0  0  0  0  0999 V3000
M  V30 BEGIN CTAB
M  V30 COUNTS 37 39 0 0 1
M  V30 BEGIN ATOM
M  V30 1 F 6.601460 3.819985 -21.045980 0
M  V30 2 C 5.790085 6.464641 -19.829205 0
M  V30 3 N 8.025636 5.051052 -11.932738 0
M  V30 4 C 6.874305 5.424692 -19.356416 0 CFG=2
M  V30 5 C 6.569734 3.960258 -19.720961 0
M  V30 6 C 5.256401 7.327097 -16.473837 0
M  V30 7 N 5.141239 7.207423 -18.982504 0
M  V30 8 F 7.500434 3.164469 -19.195908 0
M  V30 9 C 7.669167 5.104809 -14.280347 0 CFG=1
M  V30 10 C 7.337116 5.160289 -16.826476 0
M  V30 11 O 8.975407 7.137075 -11.185025 0
M  V30 12 C 7.153118 5.910699 -15.483921 0 CFG=1
M  V30 13 C 7.258625 5.500942 -10.786766 0 CFG=2
M  V30 14 C 5.707574 6.427891 -15.306194 0
M  V30 15 F 5.375410 3.576541 -19.276468 0
M  V30 16 C 8.730388 5.777289 -10.865852 0 CFG=1
M  V30 17 C 6.586791 5.829050 -17.965352 0
M  V30 18 O 9.027300 4.790226 -14.492516 0
M  V30 19 N 7.656502 5.870986 -13.034670 0
M  V30 20 O 6.975410 4.390227 -9.985025 0
M  V30 21 C 5.688572 6.760966 -17.810885 0
M  V30 22 H 5.622099 6.519533 -20.907889 0
M  V30 23 H 7.871634 5.738997 -19.665053 0
M  V30 24 H 5.703629 8.316767 -16.371726 0
M  V30 25 H 4.175263 7.466448 -16.458329 0
M  V30 26 H 7.087114 4.190809 -14.150842 0
M  V30 27 H 8.396141 5.102780 -17.081215 0
M  V30 28 H 6.975442 4.135763 -16.734980 0
M  V30 29 H 8.419247 7.636578 -10.590085 0
M  V30 30 H 7.775410 6.790227 -15.529224 0
M  V30 31 H 6.478250 6.253121 -10.898234 0
M  V30 32 H 5.021577 5.590215 -15.219479 0
M  V30 33 H 5.609709 6.988110 -14.375670 0
M  V30 34 H 9.417222 5.290124 -10.176177 0
M  V30 35 H 9.433813 4.706506 -13.640803 0
M  V30 36 H 8.268911 6.684859 -13.085744 0
M  V30 37 H 6.263262 4.614655 -9.395822 0
M  V30 END ATOM
M  V30 BEGIN BOND
M  V30 1 1 4 2
M  V30 2 1 5 1
M  V30 3 1 5 4
M  V30 4 2 7 2
M  V30 5 1 8 5
M  V30 6 1 12 9
M  V30 7 1 12 10
M  V30 8 1 13 3
M  V30 9 1 14 6
M  V30 10 1 14 12
M  V30 11 1 15 5
M  V30 12 1 16 3
M  V30 13 1 16 11
M  V30 14 1 16 13
M  V30 15 1 17 4
M  V30 16 1 17 10
M  V30 17 1 18 9
M  V30 18 1 19 3
M  V30 19 1 19 9
M  V30 20 1 20 13
M  V30 21 1 21 6
M  V30 22 1 21 7
M  V30 23 2 21 17
M  V30 24 1 22 2
M  V30 25 1 4 23 CFG=3
M  V30 26 1 24 6
M  V30 27 1 25 6
M  V30 28 1 9 26 CFG=1
M  V30 29 1 27 10
M  V30 30 1 28 10
M  V30 31 1 29 11
M  V30 32 1 12 30 CFG=3
M  V30 33 1 13 31 CFG=3
M  V30 34 1 32 14
M  V30 35 1 33 14
M  V30 36 1 16 34 CFG=1
M  V30 37 1 35 18
M  V30 38 1 36 19
M  V30 39 1 37 20
M  V30 END BOND
M  V30 END CTAB
M  END
>  <i_epik_Tot_Q>  (1) 
0

>  <i_epik_Tot_abs_Q>  (1) 
0

>  <i_i_glide_confnum>  (1) 
31

>  <i_i_glide_lignum>  (1) 
108

>  <i_i_glide_posenum>  (1) 
135

>  <i_i_glide_rotatable_bonds>  (1) 
7

>  <i_lp_mmshare_version>  (1) 
72125

>  <i_m_source_file_index>  (1) 
67

>  <i_f3d_flags>  (1) 
0

>  <num_sample>  (1) 
100

>  <b_lp_Chiralities_Consistent>  (1) 
1

>  <r_epik_Charging_Adjusted_Penalty>  (1) 
0

>  <r_epik_Ionization_Penalty>  (1) 
9.0569377288722374e-07

>  <r_epik_Ionization_Penalty_Charging>  (1) 
0

>  <r_epik_Ionization_Penalty_Neutral>  (1) 
9.0569377288722374e-07

>  <r_epik_State_Penalty>  (1) 
-0

>  <r_glide_ring_energy>  (1) 
0

>  <r_i_docking_score>  (1) 
-5.4812144085497589

>  <r_i_glide_ecoul>  (1) 
-8.2322961809214359

>  <r_i_glide_eff_state_penalty>  (1) 
-0

>  <r_i_glide_einternal>  (1) 
2.5513192805313309

>  <r_i_glide_emodel>  (1) 
-37.921905735329553

>  <r_i_glide_emodel_strain>  (1) 
1.0509112585507197

>  <r_i_glide_energy>  (1) 
-28.947447306081038

>  <r_i_glide_erotb>  (1) 
0.58731731641866725

>  <r_i_glide_esite>  (1) 
-0.15183845164705054

>  <r_i_glide_evdw>  (1) 
-20.715151125159601

>  <r_i_glide_gscore>  (1) 
-5.4812144085497589

>  <r_i_glide_gscore_strain>  (1) 
0

>  <r_i_glide_hbond>  (1) 
-0.45599999999999996

>  <r_i_glide_ligand_efficiency>  (1) 
-0.26101020993094093

>  <r_i_glide_ligand_efficiency_ln>  (1) 
-1.3552191866773324

>  <r_i_glide_ligand_efficiency_sa>  (1) 
-0.72010737846078465

>  <r_i_glide_lipo>  (1) 
-1.2102457433867817

>  <r_i_glide_metal>  (1) 
-0

>  <r_i_glide_rewards>  (1) 
-1.9798455465383986

>  <r_lp_Energy>  (1) 
5.5804089999999995

>  <r_lp_tautomer_probability>  (1) 
1

>  <s_epik_Chemistry_Notes>  (1) 
This compound has an imine and may undergo hydrolysis. This compound contains an acetal/aminal-like group ( X-CH(R)-Y where X, Y are N, S, or O) that may be acid/base labile, releasing an aldehyde.

>  <s_epik_cmdline>  (1) 
J2VwaWtfcHl0aG9uJywgJy1waHQnLCAnMS4wJywgJy1waCcsICc3LjQnLCAnLXRuJywgJzgnLCAnLW1hJywgJzUwMCcsICctaW1hZScsICc8aW5maWxlLm1hZT4nLCAnLW9tYWUnLCAnPG91dGZpbGUubWFlPic=

>  <s_epik_input>  (1) 
RkMoRikoRilbQ0BIXTFbQ0hdPU5DKD1DMTIpW0NIMl1bQ0gyXVtDQEhdKFtDSDJdMilbQ0BASF0oW09IXSlbTkhdTjNbQ0BASF0oW09IXSlbQ0hdM1tPSF0=

>  <s_glide_docking_method>  (1) 
confgen

>  <s_i_glide_gridfile>  (1) 
gpcr_drd2_6luq_protein_autoprepared_prepared

>  <s_lp_Force_Field>  (1) 
S-OPLS

>  <s_lp_Variant>  (1) 
DiffSBDD_66-1

>  <s_m_source_file>  (1) 
generated_generic_title2_ligand_DiffSBDD_2026-06-23_prepared.sdf

>  <GenAI_Model>  (1) 
DiffSBDD

>  <Protein>  (1) 
generic_title2

$$$$
DiffSBDD_78
     RDKit          3D

  0  0  0  0  0  0  0  0  0  0999 V3000
M  V30 BEGIN CTAB
M  V30 COUNTS 81 85 0 0 1
M  V30 BEGIN ATOM
M  V30 1 C 5.530798 7.475443 -18.752743 0 CFG=2
M  V30 2 C 4.296122 6.604981 -18.460083 0
M  V30 3 C 5.825185 3.196805 -12.810098 0 CFG=1
M  V30 4 C 7.648962 4.573218 -11.337352 0 CFG=2
M  V30 5 C 5.436758 8.140638 -20.138725 0
M  V30 6 N 8.651418 5.990202 -9.536477 0 CHG=1
M  V30 7 C 6.480207 5.395024 -11.918422 0 CFG=1
M  V30 8 C 7.245296 4.709564 -14.270669 0 CFG=1
M  V30 9 N 6.808954 6.714191 -18.782968 0 CFG=2 CHG=1
M  V30 10 C 7.004958 6.273009 -20.177000 0
M  V30 11 N 8.472959 5.008251 -15.077641 0 CFG=1 CHG=1
M  V30 12 C 7.648910 2.063716 -14.116460 0
M  V30 13 C 8.840423 5.378781 -10.869325 0
M  V30 14 C 9.747674 7.324671 -7.804369 0
M  V30 15 O 8.091417 3.615217 -12.320778 0
M  V30 16 C 9.743824 5.121888 -14.323178 0
M  V30 17 C 11.111796 7.804321 -7.273653 0 CFG=1
M  V30 18 C 4.574661 3.990309 -13.184885 0
M  V30 19 C 7.210436 3.381015 -13.430248 0 CFG=2
M  V30 20 F 11.775131 6.734349 -6.834929 0
M  V30 21 C 6.470361 7.427908 -21.024435 0
M  V30 22 C 6.629880 1.398108 -15.058825 0
M  V30 23 O 10.616398 7.219168 -10.019698 0
M  V30 24 C 6.857707 5.903737 -13.339229 0
M  V30 25 C 11.930762 8.455388 -8.418193 0 CFG=1
M  V30 26 C 8.421967 5.172903 -17.580656 0
M  V30 27 C 10.063087 6.436170 -9.008913 0 CFG=2
M  V30 28 C 6.972041 5.674666 -17.737072 0
M  V30 29 C 8.598122 4.255396 -16.360123 0
M  V30 30 C 10.956305 8.730567 -6.061634 0
M  V30 31 C 11.931428 7.648857 -9.719471 0
M  V30 32 C 5.373765 4.371781 -11.972454 0 CFG=1
M  V30 33 F 11.375570 9.590212 -8.788696 0
M  V30 34 H 5.566926 8.223972 -17.960568 0
M  V30 35 H 3.394752 7.218297 -18.433757 0
M  V30 36 H 4.174995 5.839501 -19.226145 0
M  V30 37 H 4.349972 6.113858 -17.488395 0
M  V30 38 H 5.775390 2.244797 -12.288360 0
M  V30 39 H 7.299339 3.990950 -10.482400 0
M  V30 40 H 5.675028 9.202074 -20.070702 0
M  V30 41 H 4.433735 8.067199 -20.562772 0
M  V30 42 H 8.018796 6.807676 -9.585007 0
M  V30 43 H 6.184030 6.214419 -11.261090 0
M  V30 44 H 6.459070 4.616282 -15.019122 0
M  V30 45 H 8.049216 6.049421 -20.398048 0
M  V30 46 H 6.421944 5.370396 -20.364040 0
M  V30 47 H 7.882424 1.336907 -13.335831 0
M  V30 48 H 8.575207 2.204233 -14.652304 0
M  V30 49 H 9.696784 4.703284 -10.815292 0
M  V30 50 H 9.095717 6.151609 -11.588180 0
M  V30 51 H 9.121433 8.163348 -8.115085 0
M  V30 52 H 9.202453 6.754636 -7.049357 0
M  V30 53 H 9.933352 4.250545 -13.706409 0
M  V30 54 H 10.584302 5.252770 -15.005044 0
M  V30 55 H 9.742292 5.984310 -13.663023 0
M  V30 56 H 3.585532 3.590217 -12.994682 0
M  V30 57 H 4.576470 4.719969 -13.984673 0
M  V30 58 H 7.280391 8.117250 -21.268834 0
M  V30 59 H 6.046684 7.079899 -21.967559 0
M  V30 60 H 7.066520 0.510899 -15.520082 0
M  V30 61 H 6.310922 2.050849 -15.867517 0
M  V30 62 H 5.741654 1.067992 -14.520351 0
M  V30 63 H 6.022305 6.455923 -13.768975 0
M  V30 64 H 7.654782 6.640994 -13.265504 0
M  V30 65 H 12.946694 8.698727 -8.104133 0
M  V30 66 H 9.129762 5.997207 -17.515644 0
M  V30 67 H 8.702920 4.612221 -18.472811 0
M  V30 68 H 10.658599 5.561254 -8.761742 0
M  V30 69 H 6.310507 4.830056 -17.934743 0
M  V30 70 H 6.648791 6.122512 -16.797353 0
M  V30 71 H 9.568700 3.759274 -16.415286 0
M  V30 72 H 7.865973 3.457980 -16.434387 0
M  V30 73 H 10.377993 9.615095 -6.318043 0
M  V30 74 H 10.441982 8.222366 -5.244705 0
M  V30 75 H 11.926838 9.060683 -5.692337 0
M  V30 76 H 12.575433 6.790720 -9.654416 0
M  V30 77 H 12.314544 8.248233 -10.546241 0
M  V30 78 H 4.975600 4.105203 -10.997158 0
M  V30 79 H 7.527562 7.406157 -18.623501 0
M  V30 80 H 8.317251 5.955178 -15.388672 0
M  V30 81 H 8.234576 5.332795 -8.893244 0
M  V30 END ATOM
M  V30 BEGIN BOND
M  V30 1 1 2 1
M  V30 2 1 5 1
M  V30 3 1 7 4
M  V30 4 1 9 1
M  V30 5 1 10 9
M  V30 6 1 11 8
M  V30 7 1 13 4
M  V30 8 1 13 6
M  V30 9 1 15 4
M  V30 10 1 16 11
M  V30 11 1 17 14
M  V30 12 1 18 3
M  V30 13 1 19 3
M  V30 14 1 19 8
M  V30 15 1 19 12 CFG=3
M  V30 16 1 19 15
M  V30 17 1 17 20 CFG=1
M  V30 18 1 21 5
M  V30 19 1 21 10
M  V30 20 1 22 12
M  V30 21 1 24 7
M  V30 22 1 24 8
M  V30 23 1 25 17
M  V30 24 1 27 6
M  V30 25 1 27 14
M  V30 26 1 27 23
M  V30 27 1 28 9
M  V30 28 1 28 26
M  V30 29 1 29 11
M  V30 30 1 29 26
M  V30 31 1 30 17
M  V30 32 1 31 23
M  V30 33 1 31 25
M  V30 34 1 32 3
M  V30 35 1 32 7
M  V30 36 1 32 18
M  V30 37 1 33 25
M  V30 38 1 1 34 CFG=1
M  V30 39 1 35 2
M  V30 40 1 36 2
M  V30 41 1 37 2
M  V30 42 1 3 38 CFG=1
M  V30 43 1 4 39 CFG=1
M  V30 44 1 40 5
M  V30 45 1 41 5
M  V30 46 1 42 6
M  V30 47 1 7 43 CFG=1
M  V30 48 1 8 44 CFG=3
M  V30 49 1 45 10
M  V30 50 1 46 10
M  V30 51 1 47 12
M  V30 52 1 48 12
M  V30 53 1 49 13
M  V30 54 1 50 13
M  V30 55 1 51 14
M  V30 56 1 52 14
M  V30 57 1 53 16
M  V30 58 1 54 16
M  V30 59 1 55 16
M  V30 60 1 56 18
M  V30 61 1 57 18
M  V30 62 1 58 21
M  V30 63 1 59 21
M  V30 64 1 60 22
M  V30 65 1 61 22
M  V30 66 1 62 22
M  V30 67 1 63 24
M  V30 68 1 64 24
M  V30 69 1 25 65 CFG=1
M  V30 70 1 66 26
M  V30 71 1 67 26
M  V30 72 1 27 68 CFG=1
M  V30 73 1 69 28
M  V30 74 1 70 28
M  V30 75 1 71 29
M  V30 76 1 72 29
M  V30 77 1 73 30
M  V30 78 1 74 30
M  V30 79 1 75 30
M  V30 80 1 76 31
M  V30 81 1 77 31
M  V30 82 1 32 78 CFG=1
M  V30 83 1 9 79 CFG=1
M  V30 84 1 11 80 CFG=3
M  V30 85 1 81 6
M  V30 END BOND
M  V30 END CTAB
M  END
>  <i_epik_Tot_Q>  (1) 
3

>  <i_epik_Tot_abs_Q>  (1) 
3

>  <i_i_glide_confnum>  (1) 
449

>  <i_i_glide_lignum>  (1) 
135

>  <i_i_glide_posenum>  (1) 
270

>  <i_i_glide_rotatable_bonds>  (1) 
9

>  <i_lp_mmshare_version>  (1) 
72125

>  <i_m_source_file_index>  (1) 
79

>  <i_f3d_flags>  (1) 
0

>  <num_sample>  (1) 
100

>  <b_lp_Chiralities_Consistent>  (1) 
1

>  <r_epik_Charging_Adjusted_Penalty>  (1) 
1.7942086838225126

>  <r_epik_Ionization_Penalty>  (1) 
0.94562311220168549

>  <r_epik_Ionization_Penalty_Charging>  (1) 
0.94562311220168382

>  <r_epik_Ionization_Penalty_Neutral>  (1) 
1.710257484888175e-15

>  <r_epik_State_Penalty>  (1) 
0.84858557162082893

>  <r_glide_ring_energy>  (1) 
0

>  <r_i_docking_score>  (1) 
-5.4677137334764412

>  <r_i_glide_ecoul>  (1) 
-9.6699543273010473

>  <r_i_glide_eff_state_penalty>  (1) 
0.84858557162082893

>  <r_i_glide_einternal>  (1) 
6.2751706046669469

>  <r_i_glide_emodel>  (1) 
-49.055577019906465

>  <r_i_glide_emodel_strain>  (1) 
0.43311977443796934

>  <r_i_glide_energy>  (1) 
-33.089597656727527

>  <r_i_glide_erotb>  (1) 
0.72404097212868179

>  <r_i_glide_esite>  (1) 
-0.1420918581860193

>  <r_i_glide_evdw>  (1) 
-23.419643329426478

>  <r_i_glide_gscore>  (1) 
-6.31629930509727

>  <r_i_glide_gscore_strain>  (1) 
0

>  <r_i_glide_hbond>  (1) 
-0.19093720177193924

>  <r_i_glide_ligand_efficiency>  (1) 
-0.16568829495383156

>  <r_i_glide_ligand_efficiency_ln>  (1) 
-1.2159912240185835

>  <r_i_glide_ligand_efficiency_sa>  (1) 
-0.53145089414288904

>  <r_i_glide_lipo>  (1) 
-2.835741965757629

>  <r_i_glide_metal>  (1) 
-0

>  <r_i_glide_rewards>  (1) 
-1.2500939359438825

>  <r_lp_Energy>  (1) 
79.635677999999999

>  <s_epik_Chemistry_Notes>  (1) 
This compound contains an acetal/aminal-like group ( X-CH(R)-Y where X, Y are N, S, or O) that may be acid/base labile, releasing an aldehyde.

>  <s_epik_cmdline>  (1) 
J2VwaWtfcHl0aG9uJywgJy1waHQnLCAnMS4wJywgJy1waCcsICc3LjQnLCAnLXRuJywgJzgnLCAnLW1hJywgJzUwMCcsICctaW1hZScsICc8aW5maWxlLm1hZT4nLCAnLW9tYWUnLCAnPG91dGZpbGUubWFlPic=

>  <s_epik_input>  (1) 
W0NIM11bQ0BASF0xW0NIMl1bQ0gyXVtDSDJdTjFbQ0gyXVtDSDJdW0NIMl1OKFtDSDNdKVtDQEBIXTJbQ0gyXVtDQEBIXShbQ0BASF0oW0NIMl0zKVtDQEBIXTNbQ0BAXTI0W0NIMl1bQ0gzXSlbQ0BASF0oTzQpW0NIMl1bTkhdW0NASF0oW0NIMl1bQ0BdNShGKVtDSDNdKU9bQ0gyXVtDQEhdNUY=

>  <s_glide_docking_method>  (1) 
confgen

>  <s_i_glide_gridfile>  (1) 
gpcr_drd2_6luq_protein_autoprepared_prepared

>  <s_lp_Force_Field>  (1) 
S-OPLS

>  <s_lp_Variant>  (1) 
DiffSBDD_78-7

>  <s_m_source_file>  (1) 
generated_generic_title2_ligand_DiffSBDD_2026-06-23_prepared.sdf

>  <GenAI_Model>  (1) 
DiffSBDD

>  <Protein>  (1) 
generic_title2

$$$$
DiffSBDD_51
     RDKit          3D

  0  0  0  0  0  0  0  0  0  0999 V3000
M  V30 BEGIN CTAB
M  V30 COUNTS 67 70 0 0 1
M  V30 BEGIN ATOM
M  V30 1 C 9.436608 7.660126 -6.602812 0
M  V30 2 C 8.602899 6.987972 -11.985508 0
M  V30 3 C 9.775402 7.102351 -9.048575 0
M  V30 4 C 9.985330 6.470103 -11.510103 0 CFG=1
M  V30 5 C 8.942664 0.609500 -17.885326 0
M  V30 6 N 9.695090 -0.399451 -19.973663 0
M  V30 7 C 6.017087 3.429999 -13.061510 0
M  V30 8 N 7.726176 5.890436 -12.405793 0
M  V30 9 C 5.775392 0.062778 -15.852889 0
M  V30 10 C 10.236677 7.749977 -7.886446 0
M  V30 11 C 6.800285 -0.060298 -16.919788 0
M  V30 12 C 7.565440 -1.064987 -19.010002 0
M  V30 13 C 6.597278 -0.953839 -17.993298 0
M  V30 14 C 7.596193 5.686584 -13.844844 0 CFG=2
M  V30 15 C 6.317927 6.854007 -15.463371 0
M  V30 16 N 6.975408 2.090644 -14.978291 0
M  V30 17 C 10.975542 6.418001 -12.686126 0
M  V30 18 C 6.993629 5.165785 -11.466862 0
M  V30 19 C 6.168843 0.891189 -14.616518 0 CFG=2
M  V30 20 C 7.974896 0.725667 -16.867218 0
M  V30 21 C 11.713539 7.923696 -10.279405 0
M  V30 22 O 4.649299 -0.421527 -15.958492 0
M  V30 23 C 8.203233 1.693115 -15.714999 0
M  V30 24 C 10.845320 0.298952 -20.034650 0
M  V30 25 N 11.857922 0.857448 -20.067000 0
M  V30 26 O 6.325991 6.004863 -14.328309 0
M  V30 27 N 7.165414 3.113409 -13.937524 0
M  V30 28 C 11.437644 8.482082 -7.920184 0
M  V30 29 C 6.879678 0.013474 -13.568756 0
M  V30 30 C 10.504531 7.190233 -10.251329 0
M  V30 31 C 6.218612 4.087791 -11.706078 0
M  V30 32 C 12.175453 8.566777 -9.115404 0
M  V30 33 C 8.012676 4.274023 -14.302972 0
M  V30 34 C 8.738872 -0.285052 -18.958930 0
M  V30 35 H 10.077030 7.764345 -5.726656 0
M  V30 36 H 8.919772 6.702067 -6.535374 0
M  V30 37 H 8.682989 8.447244 -6.576744 0
M  V30 38 H 8.718090 7.743791 -12.762998 0
M  V30 39 H 8.096880 7.516631 -11.185021 0
M  V30 40 H 8.853450 6.539677 -9.018663 0
M  V30 41 H 9.845774 5.439854 -11.176779 0
M  V30 42 H 9.840532 1.208377 -17.842759 0
M  V30 43 H 9.485176 -1.053645 -20.713552 0
M  V30 44 H 5.259354 3.975309 -13.622849 0
M  V30 45 H 5.547651 2.495727 -12.785004 0
M  V30 46 H 7.406440 -1.748389 -19.830602 0
M  V30 47 H 5.698790 -1.553726 -18.037889 0
M  V30 48 H 8.296639 6.384577 -14.302021 0
M  V30 49 H 5.290044 7.015147 -15.787273 0
M  V30 50 H 6.866016 6.409621 -16.295188 0
M  V30 51 H 6.751824 7.826921 -15.227776 0
M  V30 52 H 11.929157 5.990274 -12.385011 0
M  V30 53 H 11.175543 7.405851 -13.095793 0
M  V30 54 H 10.575439 5.809422 -13.496320 0
M  V30 55 H 7.094644 5.556741 -10.463105 0
M  V30 56 H 5.220143 1.190241 -14.181890 0
M  V30 57 H 12.288904 7.990263 -11.185032 0
M  V30 58 H 8.701525 2.561295 -16.139959 0
M  V30 59 H 8.904610 1.225198 -15.024059 0
M  V30 60 H 11.793282 8.979408 -7.029581 0
M  V30 61 H 6.241780 -0.809738 -13.251212 0
M  V30 62 H 7.132874 0.583155 -12.675164 0
M  V30 63 H 7.801679 -0.409780 -13.962757 0
M  V30 64 H 5.699080 3.628495 -10.877206 0
M  V30 65 H 13.097704 9.126257 -9.140520 0
M  V30 66 H 8.046982 4.353949 -15.387432 0
M  V30 67 H 9.029395 4.084643 -13.960681 0
M  V30 END ATOM
M  V30 BEGIN BOND
M  V30 1 1 4 2
M  V30 2 1 8 2
M  V30 3 1 10 1
M  V30 4 2 10 3
M  V30 5 1 11 9
M  V30 6 1 13 11
M  V30 7 2 13 12
M  V30 8 1 14 8
M  V30 9 1 17 4
M  V30 10 1 18 8
M  V30 11 1 19 9
M  V30 12 1 19 16
M  V30 13 1 20 5
M  V30 14 2 20 11
M  V30 15 2 22 9
M  V30 16 1 23 16
M  V30 17 1 23 20
M  V30 18 1 24 6
M  V30 19 3 25 24
M  V30 20 1 26 14
M  V30 21 1 26 15
M  V30 22 1 27 7
M  V30 23 1 27 16
M  V30 24 1 28 10
M  V30 25 1 29 19
M  V30 26 1 30 3
M  V30 27 1 30 4
M  V30 28 2 30 21
M  V30 29 1 31 7
M  V30 30 2 31 18
M  V30 31 1 32 21
M  V30 32 2 32 28
M  V30 33 1 33 14
M  V30 34 1 33 27
M  V30 35 2 34 5
M  V30 36 1 34 6
M  V30 37 1 34 12
M  V30 38 1 35 1
M  V30 39 1 36 1
M  V30 40 1 37 1
M  V30 41 1 38 2
M  V30 42 1 39 2
M  V30 43 1 40 3
M  V30 44 1 4 41 CFG=1
M  V30 45 1 42 5
M  V30 46 1 43 6
M  V30 47 1 44 7
M  V30 48 1 45 7
M  V30 49 1 46 12
M  V30 50 1 47 13
M  V30 51 1 14 48 CFG=3
M  V30 52 1 49 15
M  V30 53 1 50 15
M  V30 54 1 51 15
M  V30 55 1 52 17
M  V30 56 1 53 17
M  V30 57 1 54 17
M  V30 58 1 55 18
M  V30 59 1 19 56 CFG=1
M  V30 60 1 57 21
M  V30 61 1 58 23
M  V30 62 1 59 23
M  V30 63 1 60 28
M  V30 64 1 61 29
M  V30 65 1 62 29
M  V30 66 1 63 29
M  V30 67 1 64 31
M  V30 68 1 65 32
M  V30 69 1 66 33
M  V30 70 1 67 33
M  V30 END BOND
M  V30 END CTAB
M  END
>  <i_epik_Tot_Q>  (1) 
0

>  <i_epik_Tot_abs_Q>  (1) 
0

>  <i_i_glide_confnum>  (1) 
125

>  <i_i_glide_lignum>  (1) 
81

>  <i_i_glide_posenum>  (1) 
98

>  <i_i_glide_rotatable_bonds>  (1) 
6

>  <i_lp_mmshare_version>  (1) 
72125

>  <i_m_source_file_index>  (1) 
52

>  <i_f3d_flags>  (1) 
0

>  <num_sample>  (1) 
100

>  <b_lp_Chiralities_Consistent>  (1) 
1

>  <r_epik_Charging_Adjusted_Penalty>  (1) 
7.4502254237452924e-08

>  <r_epik_Ionization_Penalty>  (1) 
0.00022335133816854321

>  <r_epik_Ionization_Penalty_Charging>  (1) 
7.4502254237452924e-08

>  <r_epik_Ionization_Penalty_Neutral>  (1) 
0.00022327683591430577

>  <r_epik_State_Penalty>  (1) 
-0

>  <r_glide_ring_energy>  (1) 
0

>  <r_i_docking_score>  (1) 
-5.4637514109987135

>  <r_i_glide_ecoul>  (1) 
-1.4447196270997427

>  <r_i_glide_eff_state_penalty>  (1) 
-0

>  <r_i_glide_einternal>  (1) 
11.163722705757461

>  <r_i_glide_emodel>  (1) 
-49.731183745814548

>  <r_i_glide_emodel_strain>  (1) 
0.78026496712126914

>  <r_i_glide_energy>  (1) 
-44.301469095987891

>  <r_i_glide_erotb>  (1) 
0.47630443723403276

>  <r_i_glide_esite>  (1) 
-0.026880240884441148

>  <r_i_glide_evdw>  (1) 
-42.856749468888147

>  <r_i_glide_gscore>  (1) 
-5.4637514109987135

>  <r_i_glide_gscore_strain>  (1) 
0

>  <r_i_glide_hbond>  (1) 
0

>  <r_i_glide_ligand_efficiency>  (1) 
-0.16069857091172687

>  <r_i_glide_ligand_efficiency_ln>  (1) 
-1.207095939725668

>  <r_i_glide_ligand_efficiency_sa>  (1) 
-0.52060098677405697

>  <r_i_glide_lipo>  (1) 
-1.9173253586383658

>  <r_i_glide_metal>  (1) 
-0

>  <r_i_glide_rewards>  (1) 
-1.6363048312005706

>  <r_lp_Energy>  (1) 
50.225366999999999

>  <r_lp_tautomer_probability>  (1) 
1

>  <s_epik_Chemistry_Notes>  (1) 
This compound has an imine and may undergo hydrolysis. This compound contains an acetal/aminal-like group ( X-CH(R)-Y where X, Y are N, S, or O) that may be acid/base labile, releasing an aldehyde.

>  <s_epik_cmdline>  (1) 
J2VwaWtfcHl0aG9uJywgJy1waHQnLCAnMS4wJywgJy1waCcsICc3LjQnLCAnLXRuJywgJzgnLCAnLW1hJywgJzUwMCcsICctaW1hZScsICc8aW5maWxlLm1hZT4nLCAnLW9tYWUnLCAnPG91dGZpbGUubWFlPic=

>  <s_epik_input>  (1) 
W0NIM11jMVtjSF1jKFtjSF1bY0hdW2NIXTEpW0NASF0oW0NIM10pW0NIMl1OMltDQEBIXShPW0NIM10pW0NIMl1OKFtDSDJdW0NIXT1bQ0hdMilOKFtDQEBIXShDMz1PKVtDSDNdKVtDSDJdYyhjMzQpW2NIXWMoW05IXUMjTilbY0hdW2NIXTQ=

>  <s_glide_docking_method>  (1) 
confgen

>  <s_i_glide_gridfile>  (1) 
gpcr_drd2_6luq_protein_autoprepared_prepared

>  <s_lp_Force_Field>  (1) 
S-OPLS

>  <s_lp_Variant>  (1) 
DiffSBDD_51-2

>  <s_m_source_file>  (1) 
generated_generic_title2_ligand_DiffSBDD_2026-06-23_prepared.sdf

>  <GenAI_Model>  (1) 
DiffSBDD

>  <Protein>  (1) 
generic_title2

$$$$
DiffSBDD_64
     RDKit          3D

  0  0  0  0  0  0  0  0  0  0999 V3000
M  V30 BEGIN CTAB
M  V30 COUNTS 77 80 0 0 1
M  V30 BEGIN ATOM
M  V30 1 C 9.196982 5.531144 -9.559046 0
M  V30 2 C 6.074442 5.423536 -19.586491 0
M  V30 3 C 9.602819 6.427570 -7.227174 0 CFG=2
M  V30 4 C 6.305543 6.174125 -13.755823 0
M  V30 5 C 9.336048 6.870909 -20.409879 0
M  V30 6 C 10.661175 8.001349 -5.411851 0
M  V30 7 C 6.630094 4.886368 -12.969656 0 CFG=1
M  V30 8 O 6.673067 5.245344 -21.853350 0
M  V30 9 C 9.810344 8.790249 -7.673850 0
M  V30 10 C 10.978482 5.746651 -7.136997 0
M  V30 11 C 6.145883 5.924817 -15.267386 0
M  V30 12 C 8.493060 7.769636 -21.310808 0
M  V30 13 C 7.058260 7.398205 -20.938213 0
M  V30 14 C 11.271937 7.945274 -9.564946 0
M  V30 15 N 9.208909 6.706713 -8.632128 0 CFG=1 CHG=1
M  V30 16 C 9.052050 6.903123 -11.838234 0
M  V30 17 C 7.089097 5.879875 -20.657983 0 CFG=1
M  V30 18 C 9.613380 7.800657 -6.533550 0 CFG=1
M  V30 19 C 9.832356 8.005410 -8.992310 0 CFG=1
M  V30 20 C 7.763401 4.090530 -13.642632 0
M  V30 21 C 7.461779 3.850032 -15.122623 0
M  V30 22 C 6.334245 5.869570 -18.134830 0
M  V30 23 C 8.724993 4.995866 -17.850973 0
M  V30 24 C 8.942693 4.533322 -19.304310 0
M  V30 25 C 8.586136 5.528653 -20.430583 0 CFG=2
M  V30 26 S 6.911989 5.190409 -11.185056 0
M  V30 27 N 7.274128 5.136305 -15.850872 0 CFG=1 CHG=1
M  V30 28 C 7.269922 4.923654 -17.338990 0 CFG=1
M  V30 29 C 8.674267 5.654295 -11.021023 0 CFG=2
M  V30 30 H 8.606926 4.759414 -9.064031 0
M  V30 31 H 10.175412 5.101505 -9.613690 0
M  V30 32 H 5.096600 5.808734 -19.881601 0
M  V30 33 H 5.964097 4.338205 -19.610434 0
M  V30 34 H 8.851866 5.782917 -6.769180 0
M  V30 35 H 5.385469 6.611796 -13.364318 0
M  V30 36 H 7.057886 6.942331 -13.616367 0
M  V30 37 H 10.364819 6.780466 -20.760348 0
M  V30 38 H 9.366132 7.300265 -19.410341 0
M  V30 39 H 11.679323 7.952316 -5.797614 0
M  V30 40 H 10.575423 8.979460 -4.939068 0
M  V30 41 H 10.575309 7.235906 -4.640651 0
M  V30 42 H 5.733589 4.265618 -13.008278 0
M  V30 43 H 6.787400 4.311819 -21.760182 0
M  V30 44 H 10.748281 9.324006 -7.523210 0
M  V30 45 H 8.975448 9.494652 -7.661948 0
M  V30 46 H 11.265966 5.590164 -6.099840 0
M  V30 47 H 10.983163 4.790310 -7.642851 0
M  V30 48 H 11.775199 6.344349 -7.562342 0
M  V30 49 H 6.071992 6.898816 -15.751994 0
M  V30 50 H 5.206262 5.411192 -15.442226 0
M  V30 51 H 8.676414 7.519446 -22.356860 0
M  V30 52 H 8.707326 8.830932 -21.185032 0
M  V30 53 H 6.343476 7.678802 -21.713110 0
M  V30 54 H 6.777635 7.953262 -20.044449 0
M  V30 55 H 11.438801 8.782958 -10.242566 0
M  V30 56 H 12.041551 8.031728 -8.800114 0
M  V30 57 H 11.481042 7.033399 -10.114521 0
M  V30 58 H 10.084916 7.200562 -11.709265 0
M  V30 59 H 8.987262 6.707336 -12.902670 0
M  V30 60 H 8.401874 7.749338 -11.615393 0
M  V30 61 H 8.619410 7.971107 -6.116423 0
M  V30 62 H 9.192041 8.518830 -9.707031 0
M  V30 63 H 7.903788 3.136375 -13.132181 0
M  V30 64 H 8.715565 4.612890 -13.589365 0
M  V30 65 H 6.575362 3.225389 -15.227780 0
M  V30 66 H 8.285763 3.283550 -15.556648 0
M  V30 67 H 5.345554 5.870544 -17.678076 0
M  V30 68 H 6.691582 6.897522 -18.087509 0
M  V30 69 H 9.343965 4.345197 -17.232608 0
M  V30 70 H 9.134977 5.990342 -17.690932 0
M  V30 71 H 8.424102 3.588254 -19.471091 0
M  V30 72 H 10.002294 4.296615 -19.413227 0
M  V30 73 H 8.943703 5.042894 -21.341323 0
M  V30 74 H 6.903916 3.910834 -17.515275 0
M  V30 75 H 9.195738 4.829400 -11.503080 0
M  V30 76 H 8.099953 5.688788 -15.668177 0
M  V30 77 H 8.223932 6.974394 -8.595371 0
M  V30 END ATOM
M  V30 BEGIN BOND
M  V30 1 1 7 4
M  V30 2 1 10 3
M  V30 3 1 11 4
M  V30 4 1 12 5
M  V30 5 1 13 12
M  V30 6 1 15 1
M  V30 7 1 15 3
M  V30 8 1 17 2
M  V30 9 1 17 8 CFG=3
M  V30 10 1 17 13
M  V30 11 1 18 3
M  V30 12 1 18 6
M  V30 13 1 18 9
M  V30 14 1 19 9
M  V30 15 1 19 14
M  V30 16 1 19 15
M  V30 17 1 20 7
M  V30 18 1 21 20
M  V30 19 1 22 2
M  V30 20 1 24 23
M  V30 21 1 25 5
M  V30 22 1 25 17
M  V30 23 1 25 24
M  V30 24 1 26 7
M  V30 25 1 27 11
M  V30 26 1 27 21
M  V30 27 1 28 22
M  V30 28 1 28 23
M  V30 29 1 28 27
M  V30 30 1 29 1
M  V30 31 1 29 16
M  V30 32 1 29 26
M  V30 33 1 30 1
M  V30 34 1 31 1
M  V30 35 1 32 2
M  V30 36 1 33 2
M  V30 37 1 3 34 CFG=1
M  V30 38 1 35 4
M  V30 39 1 36 4
M  V30 40 1 37 5
M  V30 41 1 38 5
M  V30 42 1 39 6
M  V30 43 1 40 6
M  V30 44 1 41 6
M  V30 45 1 7 42 CFG=1
M  V30 46 1 43 8
M  V30 47 1 44 9
M  V30 48 1 45 9
M  V30 49 1 46 10
M  V30 50 1 47 10
M  V30 51 1 48 10
M  V30 52 1 49 11
M  V30 53 1 50 11
M  V30 54 1 51 12
M  V30 55 1 52 12
M  V30 56 1 53 13
M  V30 57 1 54 13
M  V30 58 1 55 14
M  V30 59 1 56 14
M  V30 60 1 57 14
M  V30 61 1 58 16
M  V30 62 1 59 16
M  V30 63 1 60 16
M  V30 64 1 18 61 CFG=1
M  V30 65 1 19 62 CFG=3
M  V30 66 1 63 20
M  V30 67 1 64 20
M  V30 68 1 65 21
M  V30 69 1 66 21
M  V30 70 1 67 22
M  V30 71 1 68 22
M  V30 72 1 69 23
M  V30 73 1 70 23
M  V30 74 1 71 24
M  V30 75 1 72 24
M  V30 76 1 25 73 CFG=3
M  V30 77 1 28 74 CFG=1
M  V30 78 1 29 75 CFG=3
M  V30 79 1 27 76 CFG=3
M  V30 80 1 15 77 CFG=1
M  V30 END BOND
M  V30 END CTAB
M  END
>  <i_epik_Tot_Q>  (1) 
2

>  <i_epik_Tot_abs_Q>  (1) 
2

>  <i_i_glide_confnum>  (1) 
137

>  <i_i_glide_lignum>  (1) 
104

>  <i_i_glide_posenum>  (1) 
175

>  <i_i_glide_rotatable_bonds>  (1) 
6

>  <i_lp_mmshare_version>  (1) 
72125

>  <i_m_source_file_index>  (1) 
65

>  <i_f3d_flags>  (1) 
0

>  <num_sample>  (1) 
100

>  <b_lp_Chiralities_Consistent>  (1) 
1

>  <r_epik_Charging_Adjusted_Penalty>  (1) 
0.010385271147369776

>  <r_epik_Ionization_Penalty>  (1) 
0.010385491156522124

>  <r_epik_Ionization_Penalty_Charging>  (1) 
0.010385271147369776

>  <r_epik_Ionization_Penalty_Neutral>  (1) 
2.2000915234807092e-07

>  <r_epik_State_Penalty>  (1) 
-0

>  <r_glide_ring_energy>  (1) 
0.15487863939553237

>  <r_i_docking_score>  (1) 
-5.4609507687270709

>  <r_i_glide_ecoul>  (1) 
-4.4908954643731587

>  <r_i_glide_eff_state_penalty>  (1) 
-0

>  <r_i_glide_einternal>  (1) 
26.026150548785083

>  <r_i_glide_emodel>  (1) 
-21.224719451738544

>  <r_i_glide_emodel_strain>  (1) 
3.9878979239337013

>  <r_i_glide_energy>  (1) 
-29.963433353916145

>  <r_i_glide_erotb>  (1) 
0.38474261442252755

>  <r_i_glide_esite>  (1) 
-0.10000000000000001

>  <r_i_glide_evdw>  (1) 
-25.472537889542988

>  <r_i_glide_gscore>  (1) 
-5.4609507687270709

>  <r_i_glide_gscore_strain>  (1) 
0

>  <r_i_glide_hbond>  (1) 
-0.23166585940225631

>  <r_i_glide_ligand_efficiency>  (1) 
-0.18830864719748519

>  <r_i_glide_ligand_efficiency_ln>  (1) 
-1.2504192482751926

>  <r_i_glide_ligand_efficiency_sa>  (1) 
-0.57854382520697389

>  <r_i_glide_lipo>  (1) 
-1.6395422139977911

>  <r_i_glide_metal>  (1) 
-0

>  <r_i_glide_rewards>  (1) 
-1.9272240956164279

>  <r_lp_Energy>  (1) 
54.489440999999999

>  <r_lp_tautomer_probability>  (1) 
1

>  <s_epik_cmdline>  (1) 
J2VwaWtfcHl0aG9uJywgJy1waHQnLCAnMS4wJywgJy1waCcsICc3LjQnLCAnLXRuJywgJzgnLCAnLW1hJywgJzUwMCcsICctaW1hZScsICc8aW5maWxlLm1hZT4nLCAnLW9tYWUnLCAnPG91dGZpbGUubWFlPic=

>  <s_epik_input>  (1) 
W0NIM11bQ0BIXTFbQ0gyXVtDQEBIXShbQ0gzXSlOKFtDQEhdMVtDSDNdKVtDSDJdW0NASF0oW0NIM10pU1tDSF0yW0NIMl1bQ0gyXU4oW0NIMl1bQ0gyXTIpW0NAQEhdKFtDSDJdW0NIMl0zKVtDSDJdW0NIMl1bQ0BASF0oW0NAQF0zNFtPSF0pW0NIMl1bQ0gyXVtDSDJdNA==

>  <s_glide_docking_method>  (1) 
confgen

>  <s_i_glide_gridfile>  (1) 
gpcr_drd2_6luq_protein_autoprepared_prepared

>  <s_lp_Force_Field>  (1) 
S-OPLS

>  <s_lp_Variant>  (1) 
DiffSBDD_64-3

>  <s_m_source_file>  (1) 
generated_generic_title2_ligand_DiffSBDD_2026-06-23_prepared.sdf

>  <GenAI_Model>  (1) 
DiffSBDD

>  <Protein>  (1) 
generic_title2

$$$$
DiffSBDD_10
     RDKit          3D

  0  0  0  0  0  0  0  0  0  0999 V3000
M  V30 BEGIN CTAB
M  V30 COUNTS 55 59 0 0 1
M  V30 BEGIN ATOM
M  V30 1 S 10.175413 7.328294 -11.445121 0
M  V30 2 C 11.968006 8.047901 -9.658950 0
M  V30 3 C 8.148063 5.446443 -11.870486 0 CFG=1
M  V30 4 C 10.661399 7.199108 -6.333695 0
M  V30 5 C 5.567834 5.786575 -12.351761 0
M  V30 6 C 11.278049 7.483498 -4.991092 0
M  V30 7 O 9.249830 8.370689 -11.915021 0
M  V30 8 C 5.967815 6.053896 -13.817383 0
M  V30 9 C 11.964304 6.715802 -2.770953 0
M  V30 10 C 7.718903 5.306956 -15.604883 0
M  V30 11 C 9.194595 4.928411 -15.397333 0
M  V30 12 N 9.205078 5.991567 -11.006925 0
M  V30 13 C 7.419187 4.276219 -11.292892 0
M  V30 14 C 7.173524 5.197686 -14.197745 0 CFG=1
M  V30 15 O 11.175357 6.790233 -12.381973 0
M  V30 16 C 11.375409 6.462529 -4.024582 0
M  V30 17 N 10.728013 7.590239 -9.948379 0 CHG=-1
M  V30 18 C 6.719208 5.605241 -11.379800 0 CFG=1
M  V30 19 C 11.775413 8.769226 -4.683428 0
M  V30 20 C 9.381558 6.394453 -6.439613 0
M  V30 21 C 12.462409 7.992285 -2.475024 0
M  V30 22 O 12.857769 8.390227 -10.431637 0
M  V30 23 O 9.375410 4.813410 -13.981918 0
M  V30 24 C 11.745516 6.876367 -7.340436 0
M  V30 25 C 12.368549 9.017600 -3.428826 0
M  V30 26 C 12.214831 8.114466 -8.145235 0
M  V30 27 C 9.356902 7.873635 -6.716101 0
M  V30 28 C 8.382764 5.615269 -13.372854 0 CFG=2
M  V30 29 H 4.971578 4.879408 -12.295910 0
M  V30 30 H 4.975408 6.621401 -11.987375 0
M  V30 31 H 5.126054 5.849228 -14.478754 0
M  V30 32 H 6.213248 7.109788 -13.941184 0
M  V30 33 H 12.033740 5.925576 -2.037735 0
M  V30 34 H 7.206889 4.642375 -16.301435 0
M  V30 35 H 7.628181 6.328023 -15.973830 0
M  V30 36 H 9.443639 3.990224 -15.890466 0
M  V30 37 H 9.854710 5.697623 -15.799240 0
M  V30 38 H 8.874170 6.139855 -10.053398 0
M  V30 39 H 7.109239 3.472134 -11.956866 0
M  V30 40 H 7.700745 3.990226 -10.284993 0
M  V30 41 H 6.937301 4.146678 -14.028779 0
M  V30 42 H 10.995788 5.485807 -4.248613 0
M  V30 43 H 6.519261 5.990227 -10.385039 0
M  V30 44 H 11.709236 9.561677 -5.414087 0
M  V30 45 H 9.225938 5.756800 -7.307651 0
M  V30 46 H 8.975394 6.005759 -5.514330 0
M  V30 47 H 12.917670 8.186804 -1.514972 0
M  V30 48 H 12.571647 6.390227 -6.820617 0
M  V30 49 H 11.375412 6.092931 -8.000763 0
M  V30 50 H 12.754259 9.990228 -3.200012 0
M  V30 51 H 11.741082 9.023873 -7.775548 0
M  V30 52 H 13.284324 8.255231 -7.985039 0
M  V30 53 H 8.857144 8.501266 -5.985025 0
M  V30 54 H 9.200266 8.166969 -7.751794 0
M  V30 55 H 8.575411 6.664651 -13.585040 0
M  V30 END ATOM
M  V30 BEGIN BOND
M  V30 1 1 6 4
M  V30 2 2 7 1
M  V30 3 1 8 5
M  V30 4 1 11 10
M  V30 5 1 12 1
M  V30 6 1 3 12 CFG=1
M  V30 7 1 13 3
M  V30 8 1 14 8
M  V30 9 1 14 10
M  V30 10 2 15 1
M  V30 11 2 16 6
M  V30 12 1 16 9
M  V30 13 1 17 1
M  V30 14 1 17 2
M  V30 15 1 18 3
M  V30 16 1 18 5
M  V30 17 1 18 13
M  V30 18 1 19 6
M  V30 19 1 20 4
M  V30 20 2 21 9
M  V30 21 2 22 2
M  V30 22 1 23 11
M  V30 23 1 24 4
M  V30 24 2 25 19
M  V30 25 1 25 21
M  V30 26 1 26 2
M  V30 27 1 26 24
M  V30 28 1 27 4
M  V30 29 1 27 20
M  V30 30 1 28 3
M  V30 31 1 28 14
M  V30 32 1 28 23
M  V30 33 1 29 5
M  V30 34 1 30 5
M  V30 35 1 31 8
M  V30 36 1 32 8
M  V30 37 1 33 9
M  V30 38 1 34 10
M  V30 39 1 35 10
M  V30 40 1 36 11
M  V30 41 1 37 11
M  V30 42 1 38 12
M  V30 43 1 39 13
M  V30 44 1 40 13
M  V30 45 1 14 41 CFG=1
M  V30 46 1 42 16
M  V30 47 1 18 43 CFG=1
M  V30 48 1 44 19
M  V30 49 1 45 20
M  V30 50 1 46 20
M  V30 51 1 47 21
M  V30 52 1 48 24
M  V30 53 1 49 24
M  V30 54 1 50 25
M  V30 55 1 51 26
M  V30 56 1 52 26
M  V30 57 1 53 27
M  V30 58 1 54 27
M  V30 59 1 28 55 CFG=1
M  V30 END BOND
M  V30 END CTAB
M  END
>  <i_epik_Tot_Q>  (1) 
-1

>  <i_epik_Tot_abs_Q>  (1) 
1

>  <i_i_glide_confnum>  (1) 
17

>  <i_i_glide_lignum>  (1) 
18

>  <i_i_glide_posenum>  (1) 
71

>  <i_i_glide_rotatable_bonds>  (1) 
8

>  <i_lp_mmshare_version>  (1) 
72125

>  <i_m_source_file_index>  (1) 
11

>  <i_f3d_flags>  (1) 
0

>  <num_sample>  (1) 
100

>  <b_lp_Chiralities_Consistent>  (1) 
1

>  <r_epik_Charging_Adjusted_Penalty>  (1) 
1.3035197679919888

>  <r_epik_Ionization_Penalty>  (1) 
0.91253719082261775

>  <r_epik_Ionization_Penalty_Charging>  (1) 
0.91200715878158756

>  <r_epik_Ionization_Penalty_Neutral>  (1) 
0.00053003204103024045

>  <r_epik_State_Penalty>  (1) 
0.39151260921040132

>  <r_glide_ring_energy>  (1) 
0

>  <r_i_docking_score>  (1) 
-5.4543737438246804

>  <r_i_glide_ecoul>  (1) 
-0.055498766364376839

>  <r_i_glide_eff_state_penalty>  (1) 
0.39151260921040132

>  <r_i_glide_einternal>  (1) 
9.1452487682746373

>  <r_i_glide_emodel>  (1) 
-39.682147584102012

>  <r_i_glide_emodel_strain>  (1) 
4.2143112640274438

>  <r_i_glide_energy>  (1) 
-38.221791289586356

>  <r_i_glide_erotb>  (1) 
0.84406116630868921

>  <r_i_glide_esite>  (1) 
-0.11018915514408337

>  <r_i_glide_evdw>  (1) 
-38.166292523221976

>  <r_i_glide_gscore>  (1) 
-5.8458863530350822

>  <r_i_glide_gscore_strain>  (1) 
0.053577816006860957

>  <r_i_glide_hbond>  (1) 
0

>  <r_i_glide_ligand_efficiency>  (1) 
-0.19479906227945287

>  <r_i_glide_ligand_efficiency_ln>  (1) 
-1.2590296074466931

>  <r_i_glide_ligand_efficiency_sa>  (1) 
-0.59152468424950699

>  <r_i_glide_lipo>  (1) 
-2.8143201350110125

>  <r_i_glide_metal>  (1) 
-0

>  <r_i_glide_rewards>  (1) 
-1.9023766040797812

>  <r_lp_Energy>  (1) 
22.621102

>  <s_epik_cmdline>  (1) 
J2VwaWtfcHl0aG9uJywgJy1waHQnLCAnMS4wJywgJy1waCcsICc3LjQnLCAnLXRuJywgJzgnLCAnLW1hJywgJzUwMCcsICctaW1hZScsICc8aW5maWxlLm1hZT4nLCAnLW9tYWUnLCAnPG91dGZpbGUubWFlPic=

>  <s_epik_input>  (1) 
W0NIMl0xW0NIMl1PW0NASF0yW0NASF0xW0NIMl1bQ0gyXVtDQEBIXShbQ0gyXTMpW0NAXTIzW05IXVMoPU8pKD1PKVtOSF1DKD1PKVtDSDJdW0NIMl1DNChbQ0gyXVtDSDJdNCljNVtjSF1bY0hdW2NIXVtjSF1bY0hdNQ==

>  <s_glide_docking_method>  (1) 
confgen

>  <s_i_glide_gridfile>  (1) 
gpcr_drd2_6luq_protein_autoprepared_prepared

>  <s_lp_Force_Field>  (1) 
S-OPLS

>  <s_lp_Variant>  (1) 
DiffSBDD_10-1

>  <s_m_source_file>  (1) 
generated_generic_title2_ligand_DiffSBDD_2026-06-23_prepared.sdf

>  <GenAI_Model>  (1) 
DiffSBDD

>  <Protein>  (1) 
generic_title2

$$$$
DiffSBDD_16
     RDKit          3D

  0  0  0  0  0  0  0  0  0  0999 V3000
M  V30 BEGIN CTAB
M  V30 COUNTS 63 67 0 0 1
M  V30 BEGIN ATOM
M  V30 1 N 14.482711 6.500599 -19.642792 0
M  V30 2 C 9.229885 5.623627 -18.242276 0
M  V30 3 C 6.865550 5.682970 -14.574644 0 CFG=1
M  V30 4 C 5.788140 6.282590 -15.507856 0
M  V30 5 N 11.058321 4.389250 -16.932628 0
M  V30 6 N 15.777912 7.067855 -19.489436 0
M  V30 7 C 12.604450 4.323735 -16.936545 0
M  V30 8 C 11.759357 5.766174 -18.563261 0
M  V30 9 C 10.688394 5.215650 -17.860870 0
M  V30 10 C 6.810708 5.422456 -17.739167 0
M  V30 11 Cl 18.871868 6.628092 -18.508825 0
M  V30 12 C 17.358175 6.132319 -17.687900 0
M  V30 13 C 6.623161 4.792936 -10.687860 0
M  V30 14 O 9.011816 6.316373 -19.238409 0
M  V30 15 C 6.317808 5.560552 -13.119524 0 CFG=1
M  V30 16 C 16.182278 6.966745 -18.083526 0 CFG=2
M  V30 17 C 15.835885 5.180967 -16.462476 0
M  V30 18 N 9.839633 7.525882 -11.291737 0
M  V30 19 C 14.255225 5.617750 -18.501021 0 CFG=1
M  V30 20 C 15.089076 6.208099 -17.353908 0 CFG=2
M  V30 21 N 9.633789 5.643191 -12.573122 0 CHG=1
M  V30 22 C 7.298980 4.990238 -12.054281 0 CFG=1
M  V30 23 N 8.227095 5.154726 -17.402638 0
M  V30 24 O 5.912321 6.841228 -12.672873 0
M  V30 25 C 8.518630 5.868327 -11.934434 0
M  V30 26 C 8.466899 4.401400 -16.148269 0
M  V30 27 N 10.572549 6.635125 -12.258184 0
M  V30 28 N 17.231349 5.190764 -16.859349 0
M  V30 29 N 8.575422 6.934170 -11.185017 0
M  V30 30 C 12.837606 5.290091 -18.065158 0
M  V30 31 C 6.216345 6.600169 -16.951627 0
M  V30 32 C 7.318826 4.311921 -15.140867 0
M  V30 33 H 13.810988 7.263867 -19.629966 0
M  V30 34 H 7.715892 6.366421 -14.553893 0
M  V30 35 H 4.951035 5.590227 -15.537815 0
M  V30 36 H 5.390533 7.206528 -15.086077 0
M  V30 37 H 15.772298 8.039522 -19.796861 0
M  V30 38 H 13.021311 4.680276 -15.994468 0
M  V30 39 H 12.971215 3.320944 -17.161157 0
M  V30 40 H 11.631988 6.476822 -19.368895 0
M  V30 41 H 6.709351 5.651022 -18.802133 0
M  V30 42 H 6.188364 4.534329 -17.629066 0
M  V30 43 H 7.327672 4.404211 -9.952127 0
M  V30 44 H 6.213433 5.721699 -10.291474 0
M  V30 45 H 5.799783 4.080816 -10.753430 0
M  V30 46 H 5.430309 4.927648 -13.145944 0
M  V30 47 H 15.420173 4.178078 -16.561107 0
M  V30 48 H 15.749513 5.464730 -15.413206 0
M  V30 49 H 9.736741 8.454741 -11.694201 0
M  V30 50 H 14.703924 4.663637 -18.778690 0
M  V30 51 H 14.479966 6.891027 -16.758517 0
M  V30 52 H 7.637177 3.994697 -12.330522 0
M  V30 53 H 5.397153 6.753869 -11.882930 0
M  V30 54 H 9.225653 4.902622 -15.551000 0
M  V30 55 H 8.787890 3.386242 -16.386151 0
M  V30 56 H 10.794948 7.160104 -13.103355 0
M  V30 57 H 16.298157 7.969192 -17.670798 0
M  V30 58 H 7.805309 7.254939 -10.576343 0
M  V30 59 H 6.902988 7.439631 -16.967082 0
M  V30 60 H 5.330695 6.951103 -17.480339 0
M  V30 61 H 7.690832 3.662530 -14.354305 0
M  V30 62 H 6.485116 3.754621 -15.554974 0
M  V30 63 H 9.782124 4.856600 -13.192736 0
M  V30 END ATOM
M  V30 BEGIN BOND
M  V30 1 1 4 3
M  V30 2 1 6 1
M  V30 3 1 7 5
M  V30 4 1 9 2
M  V30 5 2 9 5
M  V30 6 1 9 8
M  V30 7 1 12 11
M  V30 8 2 14 2
M  V30 9 1 15 3
M  V30 10 1 16 6
M  V30 11 1 16 12
M  V30 12 1 19 1
M  V30 13 1 20 16
M  V30 14 1 20 17
M  V30 15 1 20 19
M  V30 16 1 22 13
M  V30 17 1 22 15
M  V30 18 1 23 2
M  V30 19 1 23 10
M  V30 20 1 24 15
M  V30 21 2 25 21
M  V30 22 1 25 22
M  V30 23 1 26 23
M  V30 24 1 27 18
M  V30 25 1 27 21
M  V30 26 2 28 12
M  V30 27 1 28 17
M  V30 28 1 29 18
M  V30 29 1 29 25
M  V30 30 1 30 7
M  V30 31 2 30 8
M  V30 32 1 30 19
M  V30 33 1 31 4
M  V30 34 1 31 10
M  V30 35 1 32 3
M  V30 36 1 32 26
M  V30 37 1 33 1
M  V30 38 1 3 34 CFG=1
M  V30 39 1 35 4
M  V30 40 1 36 4
M  V30 41 1 37 6
M  V30 42 1 38 7
M  V30 43 1 39 7
M  V30 44 1 40 8
M  V30 45 1 41 10
M  V30 46 1 42 10
M  V30 47 1 43 13
M  V30 48 1 44 13
M  V30 49 1 45 13
M  V30 50 1 15 46 CFG=3
M  V30 51 1 47 17
M  V30 52 1 48 17
M  V30 53 1 49 18
M  V30 54 1 19 50 CFG=3
M  V30 55 1 20 51 CFG=1
M  V30 56 1 22 52 CFG=3
M  V30 57 1 53 24
M  V30 58 1 54 26
M  V30 59 1 55 26
M  V30 60 1 56 27
M  V30 61 1 16 57 CFG=1
M  V30 62 1 58 29
M  V30 63 1 59 31
M  V30 64 1 60 31
M  V30 65 1 61 32
M  V30 66 1 62 32
M  V30 67 1 63 21
M  V30 END BOND
M  V30 END CTAB
M  END
>  <i_epik_Tot_Q>  (1) 
1

>  <i_epik_Tot_abs_Q>  (1) 
1

>  <i_i_glide_confnum>  (1) 
337

>  <i_i_glide_lignum>  (1) 
31

>  <i_i_glide_posenum>  (1) 
380

>  <i_i_glide_rotatable_bonds>  (1) 
7

>  <i_lp_mmshare_version>  (1) 
72125

>  <i_m_source_file_index>  (1) 
17

>  <i_f3d_flags>  (1) 
0

>  <num_sample>  (1) 
100

>  <b_lp_Chiralities_Consistent>  (1) 
1

>  <r_epik_Charging_Adjusted_Penalty>  (1) 
0.0018574901874323989

>  <r_epik_Ionization_Penalty>  (1) 
0.0019640421356001223

>  <r_epik_Ionization_Penalty_Charging>  (1) 
0.0018574901874323989

>  <r_epik_Ionization_Penalty_Neutral>  (1) 
0.00010655194816772327

>  <r_epik_State_Penalty>  (1) 
-0

>  <r_glide_ring_energy>  (1) 
0.16544429942790889

>  <r_i_docking_score>  (1) 
-5.4450700164935526

>  <r_i_glide_ecoul>  (1) 
-10.687225741105655

>  <r_i_glide_eff_state_penalty>  (1) 
-0

>  <r_i_glide_einternal>  (1) 
6.0221519544011279

>  <r_i_glide_emodel>  (1) 
-60.004060963577224

>  <r_i_glide_emodel_strain>  (1) 
0

>  <r_i_glide_energy>  (1) 
-45.121745430880516

>  <r_i_glide_erotb>  (1) 
0.55955952450974478

>  <r_i_glide_esite>  (1) 
-0.11818891801804619

>  <r_i_glide_evdw>  (1) 
-34.434519689774859

>  <r_i_glide_gscore>  (1) 
-5.4450700164935526

>  <r_i_glide_gscore_strain>  (1) 
0

>  <r_i_glide_hbond>  (1) 
-0.42651117022685314

>  <r_i_glide_ligand_efficiency>  (1) 
-0.17015843801542352

>  <r_i_glide_ligand_efficiency_ln>  (1) 
-1.2192996036957418

>  <r_i_glide_ligand_efficiency_sa>  (1) 
-0.54021936701389806

>  <r_i_glide_lipo>  (1) 
-1.2537404169179092

>  <r_i_glide_metal>  (1) 
-0

>  <r_i_glide_rewards>  (1) 
-0.88137919018589739

>  <r_lp_Energy>  (1) 
1.743153

>  <r_lp_tautomer_probability>  (1) 
1

>  <s_epik_Chemistry_Notes>  (1) 
This compound has an imine and may undergo hydrolysis.

>  <s_epik_cmdline>  (1) 
J2VwaWtfcHl0aG9uJywgJy1waHQnLCAnMS4wJywgJy1waCcsICc3LjQnLCAnLXRuJywgJzgnLCAnLW1hJywgJzUwMCcsICctaW1hZScsICc8aW5maWxlLm1hZT4nLCAnLW9tYWUnLCAnPG91dGZpbGUubWFlPic=

>  <s_epik_input>  (1) 
Q2xDPTFbTkhdW0NIMl1bQ0BASF0oQzEyKVtDQEhdKFtOSF1bTkhdMilDKD1bQ0hdMylbQ0gyXU49QzNDKD1PKU4oW0NIMl1bQ0gyXTQpW0NIMl1bQ0gyXVtDSDJdW0NASF00W0NASF0oW09IXSlbQ0BIXShbQ0gzXSlDNT1OW05IXVtOSF1bTkhdNQ==

>  <s_glide_docking_method>  (1) 
confgen

>  <s_i_glide_gridfile>  (1) 
gpcr_drd2_6luq_protein_autoprepared_prepared

>  <s_lp_Force_Field>  (1) 
S-OPLS

>  <s_lp_Variant>  (1) 
DiffSBDD_16-1

>  <s_m_source_file>  (1) 
generated_generic_title2_ligand_DiffSBDD_2026-06-23_prepared.sdf

>  <GenAI_Model>  (1) 
DiffSBDD

>  <Protein>  (1) 
generic_title2

$$$$
DiffSBDD_14
     RDKit          3D

  0  0  0  0  0  0  0  0  0  0999 V3000
M  V30 BEGIN CTAB
M  V30 COUNTS 46 47 0 0 1
M  V30 BEGIN ATOM
M  V30 1 N 8.493226 5.190233 -9.693485 0
M  V30 2 C 8.679612 4.390078 -14.069785 0
M  V30 3 N 8.444366 3.590126 -12.869942 0
M  V30 4 C 10.821974 6.789846 -6.077759 0
M  V30 5 C 8.815724 5.239110 -11.043184 0
M  V30 6 C 7.652327 5.533371 -14.046837 0
M  V30 7 C 10.066933 7.031002 -9.027306 0
M  V30 8 C 5.546337 4.552917 -13.064291 0
M  V30 9 C 11.375321 6.661152 -4.792057 0
M  V30 10 C 10.659004 8.065072 -6.656712 0
M  V30 11 C 11.775458 7.809634 -4.070716 0
M  V30 12 C 11.634177 9.085587 -4.660832 0
M  V30 13 C 11.076685 9.211679 -5.947809 0
M  V30 14 C 8.995106 5.950167 -8.788027 0
M  V30 15 O 9.775412 5.782451 -11.594193 0
M  V30 16 C 6.420126 6.695231 -12.137497 0
M  V30 17 C 10.013910 8.217818 -8.036144 0
M  V30 18 N 12.841325 8.694856 -1.978192 0
M  V30 19 N 12.287352 7.692358 -2.764183 0
M  V30 20 C 7.781586 4.471189 -11.900472 0 CFG=1
M  V30 21 C 6.836681 5.345465 -12.762748 0
M  V30 22 O 12.575370 6.390229 -2.343312 0
M  V30 23 H 9.695612 4.788014 -14.062420 0
M  V30 24 H 8.575332 3.767293 -14.958350 0
M  V30 25 H 9.289276 3.166033 -12.509582 0
M  V30 26 H 10.512610 5.907793 -6.609622 0
M  V30 27 H 8.175687 6.489743 -14.034271 0
M  V30 28 H 7.024549 5.530065 -14.938748 0
M  V30 29 H 9.883114 7.507429 -9.987708 0
M  V30 30 H 11.060003 6.585765 -9.066097 0
M  V30 31 H 5.760739 3.579940 -13.508105 0
M  V30 32 H 4.975326 4.376430 -12.152736 0
M  V30 33 H 4.904289 5.093272 -13.759894 0
M  V30 34 H 11.478124 5.679649 -4.355904 0
M  V30 35 H 11.937980 9.968843 -4.119239 0
M  V30 36 H 10.957952 10.190637 -6.385101 0
M  V30 37 H 8.666601 5.870650 -7.749029 0
M  V30 38 H 7.272108 7.349869 -11.952119 0
M  V30 39 H 5.735709 7.239092 -12.789473 0
M  V30 40 H 5.912444 6.543909 -11.185018 0
M  V30 41 H 8.979854 8.541332 -7.899768 0
M  V30 42 H 10.518571 9.054888 -8.519647 0
M  V30 43 H 12.097919 9.266765 -1.582090 0
M  V30 44 H 13.370129 8.274309 -1.217335 0
M  V30 45 H 7.184501 3.862569 -11.221356 0
M  V30 46 H 11.771011 6.050159 -1.977564 0
M  V30 END ATOM
M  V30 BEGIN BOND
M  V30 1 1 3 2
M  V30 2 1 5 1
M  V30 3 1 6 2
M  V30 4 2 9 4
M  V30 5 1 10 4
M  V30 6 1 11 9
M  V30 7 2 12 11
M  V30 8 2 13 10
M  V30 9 1 13 12
M  V30 10 2 14 1
M  V30 11 1 14 7
M  V30 12 2 15 5
M  V30 13 1 17 7
M  V30 14 1 17 10
M  V30 15 1 19 11
M  V30 16 1 19 18
M  V30 17 1 20 3
M  V30 18 1 20 5
M  V30 19 1 21 6
M  V30 20 1 21 8
M  V30 21 1 21 16
M  V30 22 1 21 20
M  V30 23 1 22 19
M  V30 24 1 23 2
M  V30 25 1 24 2
M  V30 26 1 25 3
M  V30 27 1 26 4
M  V30 28 1 27 6
M  V30 29 1 28 6
M  V30 30 1 29 7
M  V30 31 1 30 7
M  V30 32 1 31 8
M  V30 33 1 32 8
M  V30 34 1 33 8
M  V30 35 1 34 9
M  V30 36 1 35 12
M  V30 37 1 36 13
M  V30 38 1 37 14
M  V30 39 1 38 16
M  V30 40 1 39 16
M  V30 41 1 40 16
M  V30 42 1 41 17
M  V30 43 1 42 17
M  V30 44 1 43 18
M  V30 45 1 44 18
M  V30 46 1 20 45 CFG=1
M  V30 47 1 46 22
M  V30 END BOND
M  V30 END CTAB
M  END
>  <i_epik_Tot_Q>  (1) 
0

>  <i_epik_Tot_abs_Q>  (1) 
0

>  <i_i_glide_confnum>  (1) 
520

>  <i_i_glide_lignum>  (1) 
27

>  <i_i_glide_posenum>  (1) 
353

>  <i_i_glide_rotatable_bonds>  (1) 
7

>  <i_lp_mmshare_version>  (1) 
72125

>  <i_m_source_file_index>  (1) 
15

>  <i_f3d_flags>  (1) 
0

>  <num_sample>  (1) 
100

>  <b_lp_Chiralities_Consistent>  (1) 
1

>  <r_epik_Charging_Adjusted_Penalty>  (1) 
0.22580691505965048

>  <r_epik_Ionization_Penalty>  (1) 
0.22909364713476901

>  <r_epik_Ionization_Penalty_Charging>  (1) 
0

>  <r_epik_Ionization_Penalty_Neutral>  (1) 
0.22909364713476901

>  <r_epik_State_Penalty>  (1) 
0.22580691505965048

>  <r_glide_ring_energy>  (1) 
0.68288214129490443

>  <r_i_docking_score>  (1) 
-5.4366965432386944

>  <r_i_glide_ecoul>  (1) 
-2.0707315317808721

>  <r_i_glide_eff_state_penalty>  (1) 
0.22580691505965048

>  <r_i_glide_einternal>  (1) 
2.5711377319551101

>  <r_i_glide_emodel>  (1) 
-52.777778387480637

>  <r_i_glide_emodel_strain>  (1) 
0.57684476914267435

>  <r_i_glide_energy>  (1) 
-40.584239824666973

>  <r_i_glide_erotb>  (1) 
1.1941897600298523

>  <r_i_glide_esite>  (1) 
-0.087348419184948012

>  <r_i_glide_evdw>  (1) 
-38.513508292886101

>  <r_i_glide_gscore>  (1) 
-5.6625034582983451

>  <r_i_glide_gscore_strain>  (1) 
0

>  <r_i_glide_hbond>  (1) 
0

>  <r_i_glide_ligand_efficiency>  (1) 
-0.24712257014721339

>  <r_i_glide_ligand_efficiency_ln>  (1) 
-1.3289269434922968

>  <r_i_glide_ligand_efficiency_sa>  (1) 
-0.69244716104513682

>  <r_i_glide_lipo>  (1) 
-2.0401814187211325

>  <r_i_glide_metal>  (1) 
-0

>  <r_i_glide_rewards>  (1) 
-2.4928782360106814

>  <r_lp_Energy>  (1) 
34.090119999999999

>  <s_epik_Chemistry_Notes>  (1) 
This compound has an imine and may undergo hydrolysis. This compound has a N-S or N-O group and may undergo hydrolysis at high or low pH.

>  <s_epik_cmdline>  (1) 
J2VwaWtfcHl0aG9uJywgJy1waHQnLCAnMS4wJywgJy1waCcsICc3LjQnLCAnLXRuJywgJzgnLCAnLW1hJywgJzUwMCcsICctaW1hZScsICc8aW5maWxlLm1hZT4nLCAnLW9tYWUnLCAnPG91dGZpbGUubWFlPic=

>  <s_epik_input>  (1) 
W0NIM11DMShbQ0gzXSlbQ0gyXVtDSDJdW05IXVtDQEhdMUMoPU8pL049W0NIXVxbQ0gyXVtDSDJdYzJbY0hdW2NIXWMoW2NIXVtjSF0yKU4oW05IMl0pW09IXQ==

>  <s_glide_docking_method>  (1) 
confgen

>  <s_i_glide_gridfile>  (1) 
gpcr_drd2_6luq_protein_autoprepared_prepared

>  <s_lp_Force_Field>  (1) 
S-OPLS

>  <s_lp_Variant>  (1) 
DiffSBDD_14-2

>  <s_m_source_file>  (1) 
generated_generic_title2_ligand_DiffSBDD_2026-06-23_prepared.sdf

>  <GenAI_Model>  (1) 
DiffSBDD

>  <Protein>  (1) 
generic_title2

$$$$
DiffSBDD_88
     RDKit          3D

  0  0  0  0  0  0  0  0  0  0999 V3000
M  V30 BEGIN CTAB
M  V30 COUNTS 37 38 0 0 1
M  V30 BEGIN ATOM
M  V30 1 C 7.134288 5.251886 -11.388288 0 CFG=1
M  V30 2 F 5.526812 3.935984 -12.541043 0
M  V30 3 C 10.630780 7.452537 -8.770233 0
M  V30 4 C 11.234471 8.109359 -7.520797 0
M  V30 5 O 8.189289 4.794662 -8.578114 0
M  V30 6 O 11.373777 6.937591 -5.389308 0
M  V30 7 O 6.338163 6.395587 -11.585393 0
M  V30 8 C 10.480854 7.561136 -6.296668 0 CFG=2
M  V30 9 C 9.170950 5.966226 -12.787793 0
M  V30 10 N 9.657259 6.493446 -8.251628 0
M  V30 11 C 6.831457 4.203435 -12.492261 0 CFG=1
M  V30 12 F 9.378722 5.190480 -15.005496 0
M  V30 13 C 8.883259 4.863463 -13.810525 0 CFG=2
M  V30 14 C 9.007269 5.590641 -9.039311 0
M  V30 15 C 6.583524 5.621101 -14.640630 0
M  V30 16 N 9.376451 5.693501 -10.374567 0
M  V30 17 C 8.625375 5.635442 -11.408240 0
M  V30 18 C 9.435446 6.566708 -6.820977 0
M  V30 19 C 7.380591 4.525405 -13.905572 0 CFG=2
M  V30 20 H 6.804417 4.822133 -10.448680 0
M  V30 21 H 11.408289 6.973456 -9.367877 0
M  V30 22 H 10.123361 8.187494 -9.397520 0
M  V30 23 H 11.148165 9.191708 -7.572450 0
M  V30 24 H 12.300043 7.883277 -7.462917 0
M  V30 25 H 10.868758 6.421258 -4.779314 0
M  V30 26 H 6.523672 6.996642 -10.860320 0
M  V30 27 H 9.982552 8.369560 -5.760428 0
M  V30 28 H 8.735260 6.906893 -13.125485 0
M  V30 29 H 10.246832 6.137740 -12.722959 0
M  V30 30 H 7.287275 3.264556 -12.178356 0
M  V30 31 H 9.450223 3.987657 -13.518964 0
M  V30 32 H 6.669514 6.586117 -14.147590 0
M  V30 33 H 6.943004 5.743598 -15.663573 0
M  V30 34 H 5.525051 5.368521 -14.699551 0
M  V30 35 H 9.556584 5.592599 -6.376420 0
M  V30 36 H 8.422425 6.908433 -6.611074 0
M  V30 37 H 7.282533 3.616885 -14.502074 0
M  V30 END ATOM
M  V30 BEGIN BOND
M  V30 1 1 4 3
M  V30 2 1 7 1
M  V30 3 1 8 4
M  V30 4 1 8 6
M  V30 5 1 10 3
M  V30 6 1 11 1
M  V30 7 1 11 2
M  V30 8 1 13 9
M  V30 9 1 13 12
M  V30 10 2 14 5
M  V30 11 1 14 10
M  V30 12 1 16 14
M  V30 13 1 17 1
M  V30 14 1 17 9
M  V30 15 2 17 16
M  V30 16 1 18 8
M  V30 17 1 18 10
M  V30 18 1 19 11
M  V30 19 1 19 13
M  V30 20 1 19 15
M  V30 21 1 1 20 CFG=1
M  V30 22 1 21 3
M  V30 23 1 22 3
M  V30 24 1 23 4
M  V30 25 1 24 4
M  V30 26 1 25 6
M  V30 27 1 26 7
M  V30 28 1 8 27 CFG=1
M  V30 29 1 28 9
M  V30 30 1 29 9
M  V30 31 1 11 30 CFG=1
M  V30 32 1 13 31 CFG=1
M  V30 33 1 32 15
M  V30 34 1 33 15
M  V30 35 1 34 15
M  V30 36 1 35 18
M  V30 37 1 36 18
M  V30 38 1 19 37 CFG=3
M  V30 END BOND
M  V30 END CTAB
M  END
>  <i_epik_Tot_Q>  (1) 
0

>  <i_epik_Tot_abs_Q>  (1) 
0

>  <i_i_glide_confnum>  (1) 
12

>  <i_i_glide_lignum>  (1) 
160

>  <i_i_glide_posenum>  (1) 
400

>  <i_i_glide_rotatable_bonds>  (1) 
4

>  <i_lp_mmshare_version>  (1) 
72125

>  <i_m_source_file_index>  (1) 
89

>  <i_f3d_flags>  (1) 
0

>  <num_sample>  (1) 
100

>  <b_lp_Chiralities_Consistent>  (1) 
1

>  <r_epik_Charging_Adjusted_Penalty>  (1) 
0.16120785643113181

>  <r_epik_Ionization_Penalty>  (1) 
0.1612079103687071

>  <r_epik_Ionization_Penalty_Charging>  (1) 
0

>  <r_epik_Ionization_Penalty_Neutral>  (1) 
0.1612079103687071

>  <r_epik_State_Penalty>  (1) 
0.16120785643113181

>  <r_glide_ring_energy>  (1) 
0.40670562658453302

>  <r_i_docking_score>  (1) 
-5.433302883523063

>  <r_i_glide_ecoul>  (1) 
-6.2146653141268695

>  <r_i_glide_eff_state_penalty>  (1) 
0.16120785643113181

>  <r_i_glide_einternal>  (1) 
2.4350211883796846

>  <r_i_glide_emodel>  (1) 
-43.113368681868032

>  <r_i_glide_emodel_strain>  (1) 
3.0947083091865153

>  <r_i_glide_energy>  (1) 
-37.289465854711594

>  <r_i_glide_erotb>  (1) 
0.47132455663783185

>  <r_i_glide_esite>  (1) 
-0.16433921559022538

>  <r_i_glide_evdw>  (1) 
-31.074800540584722

>  <r_i_glide_gscore>  (1) 
-5.5945107399541945

>  <r_i_glide_gscore_strain>  (1) 
0

>  <r_i_glide_hbond>  (1) 
-0.16

>  <r_i_glide_ligand_efficiency>  (1) 
-0.2859633096591086

>  <r_i_glide_ligand_efficiency_ln>  (1) 
-1.3774589776189812

>  <r_i_glide_ligand_efficiency_sa>  (1) 
-0.76306496696834958

>  <r_i_glide_lipo>  (1) 
-0.97466119882695179

>  <r_i_glide_metal>  (1) 
-0

>  <r_i_glide_rewards>  (1) 
-2.2808950580265828

>  <r_lp_Energy>  (1) 
17.035233999999999

>  <s_epik_Chemistry_Notes>  (1) 
This compound has an imine and may undergo hydrolysis.

>  <s_epik_cmdline>  (1) 
J2VwaWtfcHl0aG9uJywgJy1waHQnLCAnMS4wJywgJy1waCcsICc3LjQnLCAnLXRuJywgJzgnLCAnLW1hJywgJzUwMCcsICctaW1hZScsICc8aW5maWxlLm1hZT4nLCAnLW9tYWUnLCAnPG91dGZpbGUubWFlPic=

>  <s_epik_input>  (1) 
W09IXVtDQEhdMVtDQEBIXShGKVtDQEBIXShbQ0gzXSlbQ0BASF0oRilbQ0gyXUNcMT1OXEMoPU8pTihbQ0gyXTIpW0NIMl1bQ0gyXVtDQEBIXTJbT0hd

>  <s_glide_docking_method>  (1) 
confgen

>  <s_i_glide_gridfile>  (1) 
gpcr_drd2_6luq_protein_autoprepared_prepared

>  <s_lp_Force_Field>  (1) 
S-OPLS

>  <s_lp_Variant>  (1) 
DiffSBDD_88-1

>  <s_m_source_file>  (1) 
generated_generic_title2_ligand_DiffSBDD_2026-06-23_prepared.sdf

>  <GenAI_Model>  (1) 
DiffSBDD

>  <Protein>  (1) 
generic_title2

$$$$
DiffSBDD_59
     RDKit          3D

  0  0  0  0  0  0  0  0  0  0999 V3000
M  V30 BEGIN CTAB
M  V30 COUNTS 69 72 0 0 1
M  V30 BEGIN ATOM
M  V30 1 C 8.080094 1.839223 -17.061112 0 CFG=2
M  V30 2 C 5.627551 -0.003238 -18.580565 0
M  V30 3 C 11.354824 7.744193 -5.430748 0
M  V30 4 P 8.085604 3.688065 -16.959049 0 CFG=2
M  V30 5 C 11.977998 7.190223 -3.180658 0
M  V30 6 O 8.841267 4.385045 -12.779613 0
M  V30 7 C 9.430230 7.173155 -11.734511 0
M  V30 8 C 9.836455 6.684641 -9.347022 0
M  V30 9 C 8.691824 1.366145 -18.392009 0
M  V30 10 C 9.600207 5.869487 -8.238229 0
M  V30 11 C 10.071779 6.233498 -6.973562 0
M  V30 12 C 7.333417 0.050208 -14.584726 0
M  V30 13 N 9.375414 6.255577 -10.603249 0
M  V30 14 C 6.657019 1.301345 -16.748905 0 CFG=1
M  V30 15 O 4.966054 -0.101634 -19.608882 0
M  V30 16 C 10.802787 7.419880 -6.778081 0
M  V30 17 O 7.108015 -0.959877 -16.785046 0
M  V30 18 C 9.836838 4.175878 -16.820288 0
M  V30 19 C 11.375411 6.805087 -4.378572 0
M  V30 20 C 5.252827 -2.316049 -17.543782 0
M  V30 21 O 5.844825 1.173515 -17.912914 0
M  V30 22 C 9.745631 5.363016 -15.852681 0 CFG=2
M  V30 23 C 8.361757 6.777960 -12.784682 0 CFG=1
M  V30 24 C 12.452666 9.207756 -4.079270 0
M  V30 25 O 10.974468 5.590228 -15.194708 0
M  V30 26 C 10.541263 7.902568 -9.179206 0
M  V30 27 C 8.611335 5.391767 -13.450755 0
M  V30 28 C 8.435819 5.278191 -14.981788 0 CFG=2
M  V30 29 C 11.020243 8.268792 -7.898496 0
M  V30 30 N 7.744529 4.051807 -15.341909 0
M  V30 31 O 7.304607 4.407210 -18.002712 0
M  V30 32 N 11.881052 8.977703 -5.272340 0
M  V30 33 N 12.529568 8.401979 -3.012339 0
M  V30 34 C 6.578658 0.019721 -15.920217 0 CFG=1
M  V30 35 C 6.290666 -1.245749 -17.920355 0 CFG=1
M  V30 36 N 7.042041 6.705286 -12.117116 0 CHG=1
M  V30 37 H 8.766673 1.526915 -16.277419 0
M  V30 38 H 12.030129 6.509889 -2.343293 0
M  V30 39 H 10.429518 7.164609 -12.172988 0
M  V30 40 H 9.214912 8.193093 -11.415701 0
M  V30 41 H 8.752373 0.279724 -18.440312 0
M  V30 42 H 8.108603 1.712493 -19.245663 0
M  V30 43 H 9.705446 1.748149 -18.514320 0
M  V30 44 H 9.055718 4.944175 -8.358111 0
M  V30 45 H 9.878274 5.590227 -6.144667 0
M  V30 46 H 7.084784 0.942079 -14.009198 0
M  V30 47 H 7.049859 -0.809776 -13.981911 0
M  V30 48 H 8.413868 0.010778 -14.713219 0
M  V30 49 H 8.882433 5.377478 -10.694122 0
M  V30 50 H 6.175414 2.056597 -16.133796 0
M  V30 51 H 10.274295 4.419614 -17.788747 0
M  V30 52 H 10.404165 3.358149 -16.385027 0
M  V30 53 H 10.963529 5.817038 -4.489799 0
M  V30 54 H 4.647349 -2.605840 -18.402927 0
M  V30 55 H 5.744489 -3.214594 -17.170125 0
M  V30 56 H 4.575208 -1.970104 -16.764632 0
M  V30 57 H 9.638872 6.230628 -16.496636 0
M  V30 58 H 8.297248 7.551660 -13.548933 0
M  V30 59 H 12.944159 10.155782 -3.976951 0
M  V30 60 H 11.230360 4.847977 -14.646484 0
M  V30 61 H 10.734113 8.546164 -10.022294 0
M  V30 62 H 7.805044 6.111716 -15.293050 0
M  V30 63 H 11.574767 9.187980 -7.779972 0
M  V30 64 H 8.018570 3.321077 -14.686877 0
M  V30 65 H 5.533882 -0.195473 -15.688405 0
M  V30 66 H 6.952376 -1.681671 -18.669025 0
M  V30 67 H 6.287612 6.791286 -12.780846 0
M  V30 68 H 6.975464 5.818557 -11.640053 0
M  V30 69 H 6.975422 7.423376 -11.397939 0
M  V30 END ATOM
M  V30 BEGIN BOND
M  V30 1 1 4 1
M  V30 2 1 9 1
M  V30 3 1 10 8
M  V30 4 2 11 10
M  V30 5 1 13 7
M  V30 6 1 13 8
M  V30 7 1 14 1
M  V30 8 2 15 2
M  V30 9 1 16 3
M  V30 10 1 16 11
M  V30 11 1 18 4
M  V30 12 1 19 3
M  V30 13 2 19 5
M  V30 14 1 21 2
M  V30 15 1 21 14
M  V30 16 1 22 18
M  V30 17 1 23 7
M  V30 18 1 25 22
M  V30 19 2 26 8
M  V30 20 2 27 6
M  V30 21 1 27 23
M  V30 22 1 28 22
M  V30 23 1 28 27
M  V30 24 2 29 16
M  V30 25 1 29 26
M  V30 26 1 4 30 CFG=1
M  V30 27 1 30 28
M  V30 28 2 31 4
M  V30 29 2 32 3
M  V30 30 1 32 24
M  V30 31 1 33 5
M  V30 32 2 33 24
M  V30 33 1 34 12
M  V30 34 1 34 14
M  V30 35 1 34 17
M  V30 36 1 35 2
M  V30 37 1 35 17
M  V30 38 1 35 20
M  V30 39 1 36 23
M  V30 40 1 1 37 CFG=1
M  V30 41 1 38 5
M  V30 42 1 39 7
M  V30 43 1 40 7
M  V30 44 1 41 9
M  V30 45 1 42 9
M  V30 46 1 43 9
M  V30 47 1 44 10
M  V30 48 1 45 11
M  V30 49 1 46 12
M  V30 50 1 47 12
M  V30 51 1 48 12
M  V30 52 1 49 13
M  V30 53 1 14 50 CFG=1
M  V30 54 1 51 18
M  V30 55 1 52 18
M  V30 56 1 53 19
M  V30 57 1 54 20
M  V30 58 1 55 20
M  V30 59 1 56 20
M  V30 60 1 22 57 CFG=3
M  V30 61 1 23 58 CFG=3
M  V30 62 1 59 24
M  V30 63 1 60 25
M  V30 64 1 61 26
M  V30 65 1 28 62 CFG=3
M  V30 66 1 63 29
M  V30 67 1 64 30
M  V30 68 1 34 65 CFG=1
M  V30 69 1 35 66 CFG=3
M  V30 70 1 67 36
M  V30 71 1 68 36
M  V30 72 1 69 36
M  V30 END BOND
M  V30 END CTAB
M  END
>  <i_epik_Tot_Q>  (1) 
1

>  <i_epik_Tot_abs_Q>  (1) 
1

>  <i_i_glide_confnum>  (1) 
663

>  <i_i_glide_lignum>  (1) 
94

>  <i_i_glide_posenum>  (1) 
113

>  <i_i_glide_rotatable_bonds>  (1) 
9

>  <i_lp_mmshare_version>  (1) 
72125

>  <i_m_source_file_index>  (1) 
60

>  <i_f3d_flags>  (1) 
0

>  <num_sample>  (1) 
100

>  <b_lp_Chiralities_Consistent>  (1) 
1

>  <r_epik_Charging_Adjusted_Penalty>  (1) 
1.6146942296060567

>  <r_epik_Ionization_Penalty>  (1) 
0.80735470395218212

>  <r_epik_Ionization_Penalty_Charging>  (1) 
0.80734711480302834

>  <r_epik_Ionization_Penalty_Neutral>  (1) 
7.5891491537376816e-06

>  <r_epik_State_Penalty>  (1) 
0.80734711480302834

>  <r_glide_ring_energy>  (1) 
0.3356859326826036

>  <r_i_docking_score>  (1) 
-5.4317588204582847

>  <r_i_glide_ecoul>  (1) 
-7.3590543736072505

>  <r_i_glide_eff_state_penalty>  (1) 
0.80734711480302834

>  <r_i_glide_einternal>  (1) 
23.235221585736255

>  <r_i_glide_emodel>  (1) 
-54.371212780749097

>  <r_i_glide_emodel_strain>  (1) 
1.6267100703196604

>  <r_i_glide_energy>  (1) 
-45.720493543381792

>  <r_i_glide_erotb>  (1) 
0.61110351075041747

>  <r_i_glide_esite>  (1) 
-0.15689117310383782

>  <r_i_glide_evdw>  (1) 
-38.361439169774542

>  <r_i_glide_gscore>  (1) 
-6.2391059352613132

>  <r_i_glide_gscore_strain>  (1) 
0

>  <r_i_glide_hbond>  (1) 
-0.51210717047051801

>  <r_i_glide_ligand_efficiency>  (1) 
-0.15088218945717458

>  <r_i_glide_ligand_efficiency_ln>  (1) 
-1.1850630254596246

>  <r_i_glide_ligand_efficiency_sa>  (1) 
-0.49820201274152637

>  <r_i_glide_lipo>  (1) 
-1.7787643020627013

>  <r_i_glide_metal>  (1) 
-0

>  <r_i_glide_rewards>  (1) 
-1.3805166858448585

>  <r_lp_Energy>  (1) 
58.708514999999998

>  <r_lp_tautomer_probability>  (1) 
0.99990000499974985

>  <s_epik_Chemistry_Notes>  (1) 
This compound has an ester and may undergo hydrolysis at high or low pH.

>  <s_epik_cmdline>  (1) 
J2VwaWtfcHl0aG9uJywgJy1waHQnLCAnMS4wJywgJy1waCcsICc3LjQnLCAnLXRuJywgJzgnLCAnLW1hJywgJzUwMCcsICctaW1hZScsICc8aW5maWxlLm1hZT4nLCAnLW9tYWUnLCAnPG91dGZpbGUubWFlPic=

>  <s_epik_input>  (1) 
W0NIM11bQ0BASF0xT1tDQEBIXShbQ0gzXSlbQ0BIXShPQzE9TylbQ0BASF0oW0NIM10pW1BAXTIoPU8pW0NIMl1bQ0BIXShbT0hdKVtDQEBIXShbTkhdMilDKD1PKVtDQEBIXShbTkgyXSlbQ0gyXVtOSF1jM1tjSF1bY0hdYyhbY0hdW2NIXTMpLWM0W2NIXVtjSF1uW2NIXW40

>  <s_glide_docking_method>  (1) 
confgen

>  <s_i_glide_gridfile>  (1) 
gpcr_drd2_6luq_protein_autoprepared_prepared

>  <s_lp_Force_Field>  (1) 
S-OPLS

>  <s_lp_Variant>  (1) 
DiffSBDD_59-2

>  <s_m_source_file>  (1) 
generated_generic_title2_ligand_DiffSBDD_2026-06-23_prepared.sdf

>  <GenAI_Model>  (1) 
DiffSBDD

>  <Protein>  (1) 
generic_title2

$$$$
DiffSBDD_78
     RDKit          3D

  0  0  0  0  0  0  0  0  0  0999 V3000
M  V30 BEGIN CTAB
M  V30 COUNTS 81 85 0 0 1
M  V30 BEGIN ATOM
M  V30 1 C 6.013602 6.446752 -19.582478 0 CFG=2
M  V30 2 C 7.037288 7.105380 -20.521082 0
M  V30 3 C 5.835423 3.267246 -12.778374 0 CFG=1
M  V30 4 C 7.685815 4.629857 -11.288412 0 CFG=2
M  V30 5 C 4.575402 6.841287 -19.889811 0
M  V30 6 N 8.675600 5.990205 -9.422749 0 CHG=1
M  V30 7 C 6.508718 5.447923 -11.872289 0 CFG=1
M  V30 8 C 7.275709 4.770215 -14.214078 0 CFG=1
M  V30 9 N 6.189342 6.850471 -18.181272 0 CFG=1 CHG=1
M  V30 10 C 4.910986 6.684065 -17.476535 0
M  V30 11 N 8.511096 5.063895 -15.015416 0 CFG=1 CHG=1
M  V30 12 C 7.578423 2.156451 -14.181603 0
M  V30 13 C 8.884714 5.442053 -10.783242 0
M  V30 14 C 9.699542 6.826005 -7.350542 0
M  V30 15 O 8.108076 3.646936 -12.265265 0
M  V30 16 C 9.775414 5.068747 -14.248386 0
M  V30 17 C 11.039758 7.149415 -6.662252 0 CFG=1
M  V30 18 C 4.589621 4.038751 -13.184121 0
M  V30 19 C 7.224670 3.435672 -13.385175 0 CFG=2
M  V30 20 F 11.770755 6.035120 -6.612647 0
M  V30 21 C 3.868526 7.018046 -18.524033 0
M  V30 22 C 7.552840 0.831865 -13.398873 0
M  V30 23 O 10.508491 7.548090 -9.460575 0
M  V30 24 C 6.904334 5.964321 -13.281335 0
M  V30 25 C 11.826103 8.213148 -7.474543 0 CFG=1
M  V30 26 C 7.505789 4.816961 -17.349814 0
M  V30 27 C 10.060189 6.420879 -8.777264 0 CFG=2
M  V30 28 C 7.375463 6.341630 -17.479711 0
M  V30 29 C 8.633893 4.432642 -16.370656 0
M  V30 30 C 10.813247 7.571823 -5.209376 0
M  V30 31 C 11.787379 7.978457 -9.002042 0
M  V30 32 C 5.378354 4.439896 -11.952020 0 CFG=1
M  V30 33 F 11.375516 9.427070 -7.184984 0
M  V30 34 H 6.089562 5.361477 -19.655340 0
M  V30 35 H 6.814074 6.866589 -21.561503 0
M  V30 36 H 7.039397 8.192521 -20.422745 0
M  V30 37 H 8.048808 6.749808 -20.322086 0
M  V30 38 H 5.775420 2.339335 -12.221182 0
M  V30 39 H 7.320310 4.057533 -10.434009 0
M  V30 40 H 4.154700 6.060613 -20.520042 0
M  V30 41 H 4.525371 7.778435 -20.447528 0
M  V30 42 H 8.032806 6.798554 -9.464436 0
M  V30 43 H 6.217611 6.266137 -11.212614 0
M  V30 44 H 6.478953 4.705428 -14.946013 0
M  V30 45 H 4.778894 5.653962 -17.150237 0
M  V30 46 H 4.845495 7.334187 -16.603058 0
M  V30 47 H 8.575394 2.243606 -14.569788 0
M  V30 48 H 6.922220 2.068295 -15.048918 0
M  V30 49 H 9.746509 4.774126 -10.746768 0
M  V30 50 H 9.146766 6.254696 -11.457631 0
M  V30 51 H 9.034939 7.690769 -7.365795 0
M  V30 52 H 9.186584 6.006841 -6.845860 0
M  V30 53 H 9.913715 4.160286 -13.670207 0
M  V30 54 H 10.631873 5.192084 -14.909183 0
M  V30 55 H 9.804505 5.903872 -13.553820 0
M  V30 56 H 3.615558 3.590226 -13.023953 0
M  V30 57 H 4.585842 4.768925 -13.985104 0
M  V30 58 H 2.991554 6.390428 -18.385014 0
M  V30 59 H 3.531353 8.046812 -18.414476 0
M  V30 60 H 7.994954 0.029748 -13.990378 0
M  V30 61 H 6.539109 0.515239 -13.154396 0
M  V30 62 H 8.122942 0.905210 -12.473296 0
M  V30 63 H 6.084048 6.538329 -13.714416 0
M  V30 64 H 7.721411 6.678361 -13.191690 0
M  V30 65 H 12.872630 8.259738 -7.185073 0
M  V30 66 H 7.731709 4.386597 -18.326173 0
M  V30 67 H 6.575392 4.352021 -17.045232 0
M  V30 68 H 10.758592 5.590347 -8.785236 0
M  V30 69 H 7.321187 6.789074 -16.489432 0
M  V30 70 H 8.263341 6.723493 -17.985153 0
M  V30 71 H 9.570869 4.769788 -16.817491 0
M  V30 72 H 8.719199 3.351283 -16.323841 0
M  V30 73 H 10.175664 8.455032 -5.185097 0
M  V30 74 H 10.325598 6.776493 -4.642129 0
M  V30 75 H 11.751063 7.811317 -4.709592 0
M  V30 76 H 12.514675 7.219557 -9.285499 0
M  V30 77 H 12.077108 8.887742 -9.531188 0
M  V30 78 H 4.975736 4.168676 -10.979762 0
M  V30 79 H 6.308965 7.852977 -18.224685 0
M  V30 80 H 8.404598 6.039470 -15.247641 0
M  V30 81 H 8.238588 5.291091 -8.840988 0
M  V30 END ATOM
M  V30 BEGIN BOND
M  V30 1 1 2 1
M  V30 2 1 5 1
M  V30 3 1 7 4
M  V30 4 1 9 1
M  V30 5 1 10 9
M  V30 6 1 11 8
M  V30 7 1 13 4
M  V30 8 1 13 6
M  V30 9 1 15 4
M  V30 10 1 16 11
M  V30 11 1 17 14
M  V30 12 1 18 3
M  V30 13 1 19 3
M  V30 14 1 19 8
M  V30 15 1 19 12 CFG=3
M  V30 16 1 19 15
M  V30 17 1 17 20 CFG=1
M  V30 18 1 21 5
M  V30 19 1 21 10
M  V30 20 1 22 12
M  V30 21 1 24 7
M  V30 22 1 24 8
M  V30 23 1 25 17
M  V30 24 1 27 6
M  V30 25 1 27 14
M  V30 26 1 27 23
M  V30 27 1 28 9
M  V30 28 1 28 26
M  V30 29 1 29 11
M  V30 30 1 29 26
M  V30 31 1 30 17
M  V30 32 1 31 23
M  V30 33 1 31 25
M  V30 34 1 32 3
M  V30 35 1 32 7
M  V30 36 1 32 18
M  V30 37 1 33 25
M  V30 38 1 1 34 CFG=1
M  V30 39 1 35 2
M  V30 40 1 36 2
M  V30 41 1 37 2
M  V30 42 1 3 38 CFG=1
M  V30 43 1 4 39 CFG=1
M  V30 44 1 40 5
M  V30 45 1 41 5
M  V30 46 1 42 6
M  V30 47 1 7 43 CFG=1
M  V30 48 1 8 44 CFG=3
M  V30 49 1 45 10
M  V30 50 1 46 10
M  V30 51 1 47 12
M  V30 52 1 48 12
M  V30 53 1 49 13
M  V30 54 1 50 13
M  V30 55 1 51 14
M  V30 56 1 52 14
M  V30 57 1 53 16
M  V30 58 1 54 16
M  V30 59 1 55 16
M  V30 60 1 56 18
M  V30 61 1 57 18
M  V30 62 1 58 21
M  V30 63 1 59 21
M  V30 64 1 60 22
M  V30 65 1 61 22
M  V30 66 1 62 22
M  V30 67 1 63 24
M  V30 68 1 64 24
M  V30 69 1 25 65 CFG=1
M  V30 70 1 66 26
M  V30 71 1 67 26
M  V30 72 1 27 68 CFG=1
M  V30 73 1 69 28
M  V30 74 1 70 28
M  V30 75 1 71 29
M  V30 76 1 72 29
M  V30 77 1 73 30
M  V30 78 1 74 30
M  V30 79 1 75 30
M  V30 80 1 76 31
M  V30 81 1 77 31
M  V30 82 1 32 78 CFG=1
M  V30 83 1 9 79 CFG=3
M  V30 84 1 11 80 CFG=3
M  V30 85 1 81 6
M  V30 END BOND
M  V30 END CTAB
M  END
>  <i_epik_Tot_Q>  (1) 
3

>  <i_epik_Tot_abs_Q>  (1) 
3

>  <i_i_glide_confnum>  (1) 
129

>  <i_i_glide_lignum>  (1) 
136

>  <i_i_glide_posenum>  (1) 
218

>  <i_i_glide_rotatable_bonds>  (1) 
9

>  <i_lp_mmshare_version>  (1) 
72125

>  <i_m_source_file_index>  (1) 
79

>  <i_f3d_flags>  (1) 
0

>  <num_sample>  (1) 
100

>  <b_lp_Chiralities_Consistent>  (1) 
1

>  <r_epik_Charging_Adjusted_Penalty>  (1) 
1.7942086838225126

>  <r_epik_Ionization_Penalty>  (1) 
0.94562311220168549

>  <r_epik_Ionization_Penalty_Charging>  (1) 
0.94562311220168382

>  <r_epik_Ionization_Penalty_Neutral>  (1) 
1.710257484888175e-15

>  <r_epik_State_Penalty>  (1) 
0.84858557162082893

>  <r_glide_ring_energy>  (1) 
0

>  <r_i_docking_score>  (1) 
-5.424158591313061

>  <r_i_glide_ecoul>  (1) 
-9.1601386274724366

>  <r_i_glide_eff_state_penalty>  (1) 
0.84858557162082893

>  <r_i_glide_einternal>  (1) 
6.1086842274332191

>  <r_i_glide_emodel>  (1) 
-43.888659665130398

>  <r_i_glide_emodel_strain>  (1) 
0.24008399636699096

>  <r_i_glide_energy>  (1) 
-31.784218947668158

>  <r_i_glide_erotb>  (1) 
0.72404097212868179

>  <r_i_glide_esite>  (1) 
-0.1358048510540156

>  <r_i_glide_evdw>  (1) 
-22.62408032019572

>  <r_i_glide_gscore>  (1) 
-6.2727441629338898

>  <r_i_glide_gscore_strain>  (1) 
0

>  <r_i_glide_hbond>  (1) 
-0.19368648604284927

>  <r_i_glide_ligand_efficiency>  (1) 
-0.16436844216100185

>  <r_i_glide_ligand_efficiency_ln>  (1) 
-1.2063047859179046

>  <r_i_glide_ligand_efficiency_sa>  (1) 
-0.52721742099934688

>  <r_i_glide_lipo>  (1) 
-2.859096060551849

>  <r_i_glide_metal>  (1) 
-0

>  <r_i_glide_rewards>  (1) 
-1.3029729272832067

>  <r_lp_Energy>  (1) 
78.428286999999997

>  <s_epik_Chemistry_Notes>  (1) 
This compound contains an acetal/aminal-like group ( X-CH(R)-Y where X, Y are N, S, or O) that may be acid/base labile, releasing an aldehyde.

>  <s_epik_cmdline>  (1) 
J2VwaWtfcHl0aG9uJywgJy1waHQnLCAnMS4wJywgJy1waCcsICc3LjQnLCAnLXRuJywgJzgnLCAnLW1hJywgJzUwMCcsICctaW1hZScsICc8aW5maWxlLm1hZT4nLCAnLW9tYWUnLCAnPG91dGZpbGUubWFlPic=

>  <s_epik_input>  (1) 
W0NIM11bQ0BASF0xW0NIMl1bQ0gyXVtDSDJdTjFbQ0gyXVtDSDJdW0NIMl1OKFtDSDNdKVtDQEBIXTJbQ0gyXVtDQEBIXShbQ0BASF0oW0NIMl0zKVtDQEBIXTNbQ0BAXTI0W0NIMl1bQ0gzXSlbQ0BASF0oTzQpW0NIMl1bTkhdW0NASF0oW0NIMl1bQ0BdNShGKVtDSDNdKU9bQ0gyXVtDQEhdNUY=

>  <s_glide_docking_method>  (1) 
confgen

>  <s_i_glide_gridfile>  (1) 
gpcr_drd2_6luq_protein_autoprepared_prepared

>  <s_lp_Force_Field>  (1) 
S-OPLS

>  <s_lp_Variant>  (1) 
DiffSBDD_78-8

>  <s_m_source_file>  (1) 
generated_generic_title2_ligand_DiffSBDD_2026-06-23_prepared.sdf

>  <GenAI_Model>  (1) 
DiffSBDD

>  <Protein>  (1) 
generic_title2

$$$$
DiffSBDD_25
     RDKit          3D

  0  0  0  0  0  0  0  0  0  0999 V3000
M  V30 BEGIN CTAB
M  V30 COUNTS 64 67 0 0 1
M  V30 BEGIN ATOM
M  V30 1 C 9.775500 5.039869 -8.697937 0
M  V30 2 C 5.226277 1.765284 -19.922662 0
M  V30 3 C 6.900122 3.839551 -14.847885 0
M  V30 4 C 8.331293 4.535624 -16.790421 0
M  V30 5 N 7.329362 4.914892 -15.782267 0
M  V30 6 C 6.457543 -0.501260 -17.097605 0
M  V30 7 C 6.093071 6.719970 -16.763681 0
M  V30 8 C 6.318422 0.617801 -17.947666 0
M  V30 9 C 7.565957 3.608434 -13.436520 0 CFG=1
M  V30 10 C 8.010355 5.276171 -10.486936 0
M  V30 11 C 6.826532 6.946785 -14.481328 0
M  V30 12 O 5.825789 4.053694 -20.215040 0
M  V30 13 C 7.895413 7.245739 -12.233503 0 CFG=1
M  V30 14 C 6.623266 1.194130 -13.199298 0
M  V30 15 C 7.139695 1.814395 -17.734424 0
M  V30 16 C 5.377239 0.581020 -18.994724 0
M  V30 17 C 6.650607 4.218039 -12.299130 0
M  V30 18 C 7.024084 2.949509 -18.461103 0
M  V30 19 C 8.323860 5.375758 -9.014865 0
M  V30 20 O 6.175432 0.873212 -12.078034 0
M  V30 21 C 7.775400 6.682446 -13.581205 0
M  V30 22 C 8.684139 6.168092 -11.487513 0 CFG=1
M  V30 23 C 5.653455 -1.641269 -17.289854 0
M  V30 24 C 6.025314 3.025146 -19.569334 0
M  V30 25 C 6.759195 6.201081 -15.717461 0
M  V30 26 C 7.865428 2.097442 -13.227928 0
M  V30 27 C 9.116809 7.608109 -11.411348 0
M  V30 28 C 4.711477 -1.669613 -18.331833 0
M  V30 29 C 4.575373 -0.560940 -19.184852 0
M  V30 30 C 7.874156 4.201084 -18.230953 0
M  V30 31 N 7.136884 4.390227 -10.883568 0 CHG=1
M  V30 32 O 6.151163 0.848492 -14.299993 0 CHG=-1
M  V30 33 H 9.952492 5.166373 -7.630237 0
M  V30 34 H 10.453864 5.733089 -9.193368 0
M  V30 35 H 10.037454 4.018236 -8.973362 0
M  V30 36 H 5.525972 1.450446 -20.922053 0
M  V30 37 H 4.175348 2.022191 -19.985084 0
M  V30 38 H 5.832571 3.989418 -14.686188 0
M  V30 39 H 6.949790 2.914528 -15.409334 0
M  V30 40 H 8.921968 3.707593 -16.396742 0
M  V30 41 H 9.032404 5.368370 -16.852918 0
M  V30 42 H 7.176053 -0.481590 -16.289967 0
M  V30 43 H 5.633705 7.695819 -16.701485 0
M  V30 44 H 5.989847 6.177992 -17.686925 0
M  V30 45 H 8.561844 4.035625 -13.421726 0
M  V30 46 H 6.080194 7.695411 -14.269539 0
M  V30 47 H 6.937096 7.559546 -11.821904 0
M  V30 48 H 7.866611 1.764226 -16.938404 0
M  V30 49 H 6.195080 5.161535 -12.579402 0
M  V30 50 H 5.774933 3.578472 -12.194122 0
M  V30 51 H 8.175410 6.390222 -8.663499 0
M  V30 52 H 8.516145 5.954859 -13.843580 0
M  V30 53 H 5.757634 -2.493601 -16.633026 0
M  V30 54 H 8.499544 1.741154 -14.039928 0
M  V30 55 H 8.465824 1.951844 -12.335930 0
M  V30 56 H 10.002620 7.904822 -11.967761 0
M  V30 57 H 8.975385 8.131297 -10.468225 0
M  V30 58 H 4.092431 -2.542492 -18.475803 0
M  V30 59 H 3.853862 -0.583710 -19.984964 0
M  V30 60 H 7.424760 5.082480 -18.676551 0
M  V30 61 H 8.774391 4.043750 -18.825907 0
M  V30 62 H 9.448158 5.567692 -11.979836 0
M  V30 63 H 7.658850 4.732714 -8.436430 0
M  V30 64 H 6.705784 3.793573 -10.183688 0
M  V30 END ATOM
M  V30 BEGIN BOND
M  V30 1 1 5 3
M  V30 2 1 5 4
M  V30 3 2 8 6
M  V30 4 1 9 3
M  V30 5 1 15 8
M  V30 6 1 16 2
M  V30 7 1 16 8
M  V30 8 1 17 9
M  V30 9 2 18 15
M  V30 10 1 19 1
M  V30 11 1 19 10
M  V30 12 2 20 14
M  V30 13 2 21 11
M  V30 14 1 21 13
M  V30 15 1 22 10
M  V30 16 1 22 13
M  V30 17 1 23 6
M  V30 18 1 24 2
M  V30 19 2 24 12
M  V30 20 1 24 18
M  V30 21 1 25 5
M  V30 22 2 25 7
M  V30 23 1 25 11
M  V30 24 1 26 9
M  V30 25 1 26 14
M  V30 26 1 27 13
M  V30 27 1 27 22
M  V30 28 2 28 23
M  V30 29 2 29 16
M  V30 30 1 29 28
M  V30 31 1 30 4
M  V30 32 1 30 18
M  V30 33 2 31 10
M  V30 34 1 31 17
M  V30 35 1 32 14
M  V30 36 1 33 1
M  V30 37 1 34 1
M  V30 38 1 35 1
M  V30 39 1 36 2
M  V30 40 1 37 2
M  V30 41 1 38 3
M  V30 42 1 39 3
M  V30 43 1 40 4
M  V30 44 1 41 4
M  V30 45 1 42 6
M  V30 46 1 43 7
M  V30 47 1 44 7
M  V30 48 1 9 45 CFG=3
M  V30 49 1 46 11
M  V30 50 1 13 47 CFG=1
M  V30 51 1 48 15
M  V30 52 1 49 17
M  V30 53 1 50 17
M  V30 54 1 51 19
M  V30 55 1 52 21
M  V30 56 1 53 23
M  V30 57 1 54 26
M  V30 58 1 55 26
M  V30 59 1 56 27
M  V30 60 1 57 27
M  V30 61 1 58 28
M  V30 62 1 59 29
M  V30 63 1 60 30
M  V30 64 1 61 30
M  V30 65 1 22 62 CFG=3
M  V30 66 1 63 19
M  V30 67 1 64 31
M  V30 END BOND
M  V30 END CTAB
M  END
>  <i_epik_Tot_Q>  (1) 
0

>  <i_epik_Tot_abs_Q>  (1) 
2

>  <i_i_glide_confnum>  (1) 
38

>  <i_i_glide_lignum>  (1) 
44

>  <i_i_glide_posenum>  (1) 
149

>  <i_i_glide_rotatable_bonds>  (1) 
6

>  <i_lp_mmshare_version>  (1) 
72125

>  <i_m_source_file_index>  (1) 
26

>  <i_f3d_flags>  (1) 
0

>  <num_sample>  (1) 
100

>  <b_lp_Chiralities_Consistent>  (1) 
1

>  <r_epik_Charging_Adjusted_Penalty>  (1) 
0.12353365736142194

>  <r_epik_Ionization_Penalty>  (1) 
13.465358995569625

>  <r_epik_Ionization_Penalty_Charging>  (1) 
0.062700894571276394

>  <r_epik_Ionization_Penalty_Neutral>  (1) 
13.402658100998348

>  <r_epik_State_Penalty>  (1) 
0.060832762790145552

>  <r_glide_ring_energy>  (1) 
0

>  <r_i_docking_score>  (1) 
-5.4016450833084022

>  <r_i_glide_ecoul>  (1) 
-3.5817918173477037

>  <r_i_glide_eff_state_penalty>  (1) 
0.060832762790145552

>  <r_i_glide_einternal>  (1) 
3.9083151197249144

>  <r_i_glide_emodel>  (1) 
-43.182368561777643

>  <r_i_glide_emodel_strain>  (1) 
2.9682191920864369

>  <r_i_glide_energy>  (1) 
-37.260701712556298

>  <r_i_glide_erotb>  (1) 
0.42539970400538585

>  <r_i_glide_esite>  (1) 
-0.1109242899125267

>  <r_i_glide_evdw>  (1) 
-33.678909895208591

>  <r_i_glide_gscore>  (1) 
-5.4624778460985475

>  <r_i_glide_gscore_strain>  (1) 
0

>  <r_i_glide_hbond>  (1) 
0

>  <r_i_glide_ligand_efficiency>  (1) 
-0.16880140885338757

>  <r_i_glide_ligand_efficiency_ln>  (1) 
-1.2095755774366148

>  <r_i_glide_ligand_efficiency_sa>  (1) 
-0.53591106797516319

>  <r_i_glide_lipo>  (1) 
-2.3524304652202161

>  <r_i_glide_metal>  (1) 
-0

>  <r_i_glide_rewards>  (1) 
-1.203308527608606

>  <r_lp_Energy>  (1) 
54.374595999999997

>  <s_epik_Chemistry_Notes>  (1) 
This compound has an imine and may undergo hydrolysis.

>  <s_epik_cmdline>  (1) 
J2VwaWtfcHl0aG9uJywgJy1waHQnLCAnMS4wJywgJy1waCcsICc3LjQnLCAnLXRuJywgJzgnLCAnLW1hJywgJzUwMCcsICctaW1hZScsICc8aW5maWxlLm1hZT4nLCAnLW9tYWUnLCAnPG91dGZpbGUubWFlPic=

>  <s_epik_input>  (1) 
W0NIM10vW0NIXT1DKFxbQ0BIXShbQ0BIXTEyKVtDSDJdMilbTkhdW0NIMl1bQ0BASF0oW0NIMl1DKD1PKVtPSF0pW0NIMl1OKEMoPVtDSDJdKS9bQ0hdPVtDSF0vMSlbQ0gyXVtDSDJdQyg9W0NIXTMpQyg9TylbQ0gyXWMoYzM0KVtjSF1bY0hdW2NIXVtjSF00

>  <s_glide_docking_method>  (1) 
confgen

>  <s_i_glide_gridfile>  (1) 
gpcr_drd2_6luq_protein_autoprepared_prepared

>  <s_lp_Force_Field>  (1) 
S-OPLS

>  <s_lp_Variant>  (1) 
DiffSBDD_25-2

>  <s_m_source_file>  (1) 
generated_generic_title2_ligand_DiffSBDD_2026-06-23_prepared.sdf

>  <GenAI_Model>  (1) 
DiffSBDD

>  <Protein>  (1) 
generic_title2

$$$$
DiffSBDD_10
     RDKit          3D

  0  0  0  0  0  0  0  0  0  0999 V3000
M  V30 BEGIN CTAB
M  V30 COUNTS 55 59 0 0 1
M  V30 BEGIN ATOM
M  V30 1 S 9.370034 6.309939 -11.851128 0
M  V30 2 C 8.997671 5.493456 -9.146418 0
M  V30 3 C 8.099419 4.838917 -13.729604 0 CFG=1
M  V30 4 C 10.840996 7.884573 -6.558546 0
M  V30 5 C 5.506001 5.353822 -13.736653 0
M  V30 6 C 11.375406 7.782663 -5.123900 0
M  V30 7 O 8.300817 7.310293 -11.985013 0
M  V30 8 C 5.763421 5.968581 -15.135258 0
M  V30 9 C 11.775412 6.507340 -3.065696 0
M  V30 10 C 7.213341 5.553657 -17.288311 0
M  V30 11 C 8.656191 5.024013 -17.384868 0
M  V30 12 N 9.295644 5.116793 -12.940917 0 CHG=-1
M  V30 13 C 7.418597 3.571631 -13.280728 0
M  V30 14 C 6.848268 5.176127 -15.869427 0 CFG=1
M  V30 15 O 10.742755 6.790248 -11.636353 0
M  V30 16 C 11.280748 6.576169 -4.385006 0
M  V30 17 N 8.975374 5.265811 -10.529579 0
M  V30 18 C 6.767074 4.916157 -12.986179 0 CFG=1
M  V30 19 C 11.983893 8.910870 -4.503906 0
M  V30 20 C 10.172955 9.190224 -6.878916 0
M  V30 21 C 12.372664 7.629546 -2.473255 0
M  V30 22 O 8.364413 4.790226 -8.361557 0
M  V30 23 O 9.047096 4.661703 -16.056575 0
M  V30 24 C 10.208989 6.604303 -7.137495 0
M  V30 25 C 12.477886 8.826987 -3.190673 0
M  V30 26 C 9.881269 6.649176 -8.662096 0
M  V30 27 C 11.505794 8.867219 -7.513852 0
M  V30 28 C 8.179048 5.338834 -15.161864 0 CFG=2
M  V30 29 H 4.853697 4.486042 -13.822947 0
M  V30 30 H 4.975461 6.081747 -13.122798 0
M  V30 31 H 4.843107 5.990285 -15.718246 0
M  V30 32 H 6.081318 7.006624 -15.024685 0
M  V30 33 H 11.695159 5.590224 -2.508376 0
M  V30 34 H 6.546142 5.098327 -18.020755 0
M  V30 35 H 7.185451 6.633689 -17.429075 0
M  V30 36 H 8.722351 4.147981 -18.031005 0
M  V30 37 H 9.326204 5.787103 -17.782624 0
M  V30 38 H 6.967003 2.933290 -14.036348 0
M  V30 39 H 7.853542 3.032830 -12.440785 0
M  V30 40 H 6.575446 4.121987 -15.881318 0
M  V30 41 H 10.823334 5.704315 -4.823068 0
M  V30 42 H 8.508767 4.439192 -10.893830 0
M  V30 43 H 6.746365 5.177844 -11.931352 0
M  V30 44 H 12.073201 9.842352 -5.041040 0
M  V30 45 H 9.286207 9.181725 -7.509019 0
M  V30 46 H 10.176967 9.966264 -6.123627 0
M  V30 47 H 12.751473 7.570704 -1.464752 0
M  V30 48 H 10.900455 5.774195 -6.993238 0
M  V30 49 H 9.308380 6.384591 -6.561305 0
M  V30 50 H 12.938729 9.687805 -2.734249 0
M  V30 51 H 9.374515 7.567327 -8.951632 0
M  V30 52 H 10.825456 6.618044 -9.200321 0
M  V30 53 H 12.394466 9.386042 -7.166698 0
M  V30 54 H 11.487638 8.700918 -8.587725 0
M  V30 55 H 8.455518 6.390229 -15.140394 0
M  V30 END ATOM
M  V30 BEGIN BOND
M  V30 1 1 6 4
M  V30 2 2 7 1
M  V30 3 1 8 5
M  V30 4 1 11 10
M  V30 5 1 12 1
M  V30 6 1 3 12 CFG=1
M  V30 7 1 13 3
M  V30 8 1 14 8
M  V30 9 1 14 10
M  V30 10 2 15 1
M  V30 11 2 16 6
M  V30 12 1 16 9
M  V30 13 1 17 1
M  V30 14 1 17 2
M  V30 15 1 18 3
M  V30 16 1 18 5
M  V30 17 1 18 13
M  V30 18 1 19 6
M  V30 19 1 20 4
M  V30 20 2 21 9
M  V30 21 2 22 2
M  V30 22 1 23 11
M  V30 23 1 24 4
M  V30 24 2 25 19
M  V30 25 1 25 21
M  V30 26 1 26 2
M  V30 27 1 26 24
M  V30 28 1 27 4
M  V30 29 1 27 20
M  V30 30 1 28 3
M  V30 31 1 28 14
M  V30 32 1 28 23
M  V30 33 1 29 5
M  V30 34 1 30 5
M  V30 35 1 31 8
M  V30 36 1 32 8
M  V30 37 1 33 9
M  V30 38 1 34 10
M  V30 39 1 35 10
M  V30 40 1 36 11
M  V30 41 1 37 11
M  V30 42 1 38 13
M  V30 43 1 39 13
M  V30 44 1 14 40 CFG=3
M  V30 45 1 41 16
M  V30 46 1 42 17
M  V30 47 1 18 43 CFG=1
M  V30 48 1 44 19
M  V30 49 1 45 20
M  V30 50 1 46 20
M  V30 51 1 47 21
M  V30 52 1 48 24
M  V30 53 1 49 24
M  V30 54 1 50 25
M  V30 55 1 51 26
M  V30 56 1 52 26
M  V30 57 1 53 27
M  V30 58 1 54 27
M  V30 59 1 28 55 CFG=1
M  V30 END BOND
M  V30 END CTAB
M  END
>  <i_epik_Tot_Q>  (1) 
-1

>  <i_epik_Tot_abs_Q>  (1) 
1

>  <i_i_glide_confnum>  (1) 
44

>  <i_i_glide_lignum>  (1) 
19

>  <i_i_glide_posenum>  (1) 
128

>  <i_i_glide_rotatable_bonds>  (1) 
8

>  <i_lp_mmshare_version>  (1) 
72125

>  <i_m_source_file_index>  (1) 
11

>  <i_f3d_flags>  (1) 
0

>  <num_sample>  (1) 
100

>  <b_lp_Chiralities_Consistent>  (1) 
1

>  <r_epik_Charging_Adjusted_Penalty>  (1) 
0.69645471960127314

>  <r_epik_Ionization_Penalty>  (1) 
0.13608129319335216

>  <r_epik_Ionization_Penalty_Charging>  (1) 
0.023519382127027082

>  <r_epik_Ionization_Penalty_Neutral>  (1) 
0.11256191106632508

>  <r_epik_State_Penalty>  (1) 
0.67293533747424605

>  <r_glide_ring_energy>  (1) 
0

>  <r_i_docking_score>  (1) 
-5.4010436947331053

>  <r_i_glide_ecoul>  (1) 
0.53444755045985892

>  <r_i_glide_eff_state_penalty>  (1) 
0.67293533747424605

>  <r_i_glide_einternal>  (1) 
18.909744667655829

>  <r_i_glide_emodel>  (1) 
-39.716346119374855

>  <r_i_glide_emodel_strain>  (1) 
0.40562485718649555

>  <r_i_glide_energy>  (1) 
-36.859403492988186

>  <r_i_glide_erotb>  (1) 
0.84406116630868921

>  <r_i_glide_esite>  (1) 
-0.17362125403338713

>  <r_i_glide_evdw>  (1) 
-37.393851043448045

>  <r_i_glide_gscore>  (1) 
-6.073979032207351

>  <r_i_glide_gscore_strain>  (1) 
0

>  <r_i_glide_hbond>  (1) 
0

>  <r_i_glide_ligand_efficiency>  (1) 
-0.19289441766903948

>  <r_i_glide_ligand_efficiency_ln>  (1) 
-1.2467194662780763

>  <r_i_glide_ligand_efficiency_sa>  (1) 
-0.58574106143018334

>  <r_i_glide_lipo>  (1) 
-3.5200474455868571

>  <r_i_glide_metal>  (1) 
-0

>  <r_i_glide_rewards>  (1) 
-1.4348460792923727

>  <r_lp_Energy>  (1) 
21.120514999999997

>  <s_epik_cmdline>  (1) 
J2VwaWtfcHl0aG9uJywgJy1waHQnLCAnMS4wJywgJy1waCcsICc3LjQnLCAnLXRuJywgJzgnLCAnLW1hJywgJzUwMCcsICctaW1hZScsICc8aW5maWxlLm1hZT4nLCAnLW9tYWUnLCAnPG91dGZpbGUubWFlPic=

>  <s_epik_input>  (1) 
W0NIMl0xW0NIMl1PW0NASF0yW0NASF0xW0NIMl1bQ0gyXVtDQEBIXShbQ0gyXTMpW0NAXTIzW05IXVMoPU8pKD1PKVtOSF1DKD1PKVtDSDJdW0NIMl1DNChbQ0gyXVtDSDJdNCljNVtjSF1bY0hdW2NIXVtjSF1bY0hdNQ==

>  <s_glide_docking_method>  (1) 
confgen

>  <s_i_glide_gridfile>  (1) 
gpcr_drd2_6luq_protein_autoprepared_prepared

>  <s_lp_Force_Field>  (1) 
S-OPLS

>  <s_lp_Variant>  (1) 
DiffSBDD_10-2

>  <s_m_source_file>  (1) 
generated_generic_title2_ligand_DiffSBDD_2026-06-23_prepared.sdf

>  <GenAI_Model>  (1) 
DiffSBDD

>  <Protein>  (1) 
generic_title2

$$$$
DiffSBDD_26
     RDKit          3D

  0  0  0  0  0  0  0  0  0  0999 V3000
M  V30 BEGIN CTAB
M  V30 COUNTS 56 58 0 0 1
M  V30 BEGIN ATOM
M  V30 1 C 5.699184 5.438156 -13.814585 0
M  V30 2 O 12.232367 7.990238 -10.385015 0
M  V30 3 C 6.126147 6.487832 -16.626851 0 CFG=1
M  V30 4 C 9.375423 5.654123 -9.832803 0
M  V30 5 C 8.290673 5.368319 -17.475344 0
M  V30 6 C 6.689999 7.436270 -12.784820 0
M  V30 7 C 8.646303 5.891975 -12.129477 0 CFG=2
M  V30 8 C 9.020559 4.297319 -10.416002 0
M  V30 9 C 6.539222 3.702555 -12.174693 0
M  V30 10 N 8.907947 4.460301 -11.879722 0 CFG=1 CHG=1
M  V30 11 N 9.375411 7.954890 -10.785027 0
M  V30 12 C 4.903708 7.321326 -17.018621 0
M  V30 13 C 10.039309 8.496006 -9.585142 0
M  V30 14 C 8.011892 3.506090 -12.575341 0
M  V30 15 C 7.067858 6.233984 -17.842651 0
M  V30 16 C 6.095714 5.147952 -12.380039 0 CFG=1
M  V30 17 C 5.984961 6.922368 -14.062893 0 CFG=1
M  V30 18 C 9.584935 6.537136 -11.066111 0 CFG=1
M  V30 19 O 3.806870 6.790239 -17.185021 0
M  V30 20 C 6.797194 7.108754 -15.361591 0
M  V30 21 O 11.923012 8.092970 -8.184458 0 CHG=-1
M  V30 22 C 7.123149 6.218970 -11.956988 0 CFG=2
M  V30 23 C 6.338225 5.563120 -19.027103 0
M  V30 24 C 11.527510 8.164218 -9.368181 0
M  V30 25 H 4.651020 5.190752 -13.985505 0
M  V30 26 H 6.289499 4.806766 -14.477801 0
M  V30 27 H 5.734023 5.509031 -16.365103 0
M  V30 28 H 10.249365 5.606354 -9.184930 0
M  V30 29 H 8.547287 6.010666 -9.219114 0
M  V30 30 H 7.988087 4.439434 -16.990899 0
M  V30 31 H 8.984008 5.883395 -16.812439 0
M  V30 32 H 8.865992 5.102991 -18.362433 0
M  V30 33 H 7.514287 8.118306 -12.996658 0
M  V30 34 H 5.965386 7.990225 -12.186899 0
M  V30 35 H 8.972436 6.135500 -13.141404 0
M  V30 36 H 9.775408 3.554582 -10.181129 0
M  V30 37 H 8.072400 3.990248 -9.985002 0
M  V30 38 H 6.352228 3.445436 -11.136691 0
M  V30 39 H 5.904160 3.027170 -12.749467 0
M  V30 40 H 8.381552 8.049209 -10.563423 0
M  V30 41 H 5.080144 8.390219 -17.134246 0
M  V30 42 H 9.922867 9.577441 -9.584987 0
M  V30 43 H 9.494000 8.143363 -8.708988 0
M  V30 44 H 8.128242 3.653361 -13.649325 0
M  V30 45 H 8.335039 2.482172 -12.385038 0
M  V30 46 H 7.438189 7.190227 -18.207000 0
M  V30 47 H 5.199458 5.309331 -11.777241 0
M  V30 48 H 5.043989 7.464326 -14.158227 0
M  V30 49 H 10.603340 6.405653 -11.428736 0
M  V30 50 H 7.775170 6.666654 -15.185036 0
M  V30 51 H 6.975416 8.173974 -15.519642 0
M  V30 52 H 6.939625 6.390225 -10.900420 0
M  V30 53 H 5.893599 4.611615 -18.731531 0
M  V30 54 H 7.024945 5.362373 -19.850561 0
M  V30 55 H 5.544209 6.189993 -19.433172 0
M  V30 56 H 9.839030 4.297081 -12.240137 0
M  V30 END ATOM
M  V30 BEGIN BOND
M  V30 1 1 8 4
M  V30 2 1 10 7
M  V30 3 1 10 8
M  V30 4 1 12 3
M  V30 5 1 13 11
M  V30 6 1 14 9
M  V30 7 1 14 10
M  V30 8 1 15 3
M  V30 9 1 15 5
M  V30 10 1 16 1
M  V30 11 1 16 9
M  V30 12 1 17 1
M  V30 13 1 17 6
M  V30 14 1 18 4
M  V30 15 1 18 7
M  V30 16 1 18 11
M  V30 17 2 19 12
M  V30 18 1 20 3
M  V30 19 1 20 17
M  V30 20 1 22 6
M  V30 21 1 22 7
M  V30 22 1 22 16
M  V30 23 1 23 15
M  V30 24 2 24 2
M  V30 25 1 24 13
M  V30 26 1 24 21
M  V30 27 1 25 1
M  V30 28 1 26 1
M  V30 29 1 3 27 CFG=1
M  V30 30 1 28 4
M  V30 31 1 29 4
M  V30 32 1 30 5
M  V30 33 1 31 5
M  V30 34 1 32 5
M  V30 35 1 33 6
M  V30 36 1 34 6
M  V30 37 1 7 35 CFG=3
M  V30 38 1 36 8
M  V30 39 1 37 8
M  V30 40 1 38 9
M  V30 41 1 39 9
M  V30 42 1 40 11
M  V30 43 1 41 12
M  V30 44 1 42 13
M  V30 45 1 43 13
M  V30 46 1 44 14
M  V30 47 1 45 14
M  V30 48 1 46 15
M  V30 49 1 16 47 CFG=1
M  V30 50 1 17 48 CFG=3
M  V30 51 1 18 49 CFG=3
M  V30 52 1 50 20
M  V30 53 1 51 20
M  V30 54 1 22 52 CFG=1
M  V30 55 1 53 23
M  V30 56 1 54 23
M  V30 57 1 55 23
M  V30 58 1 10 56 CFG=3
M  V30 END BOND
M  V30 END CTAB
M  END
>  <i_epik_Tot_Q>  (1) 
0

>  <i_epik_Tot_abs_Q>  (1) 
2

>  <i_i_glide_confnum>  (1) 
41

>  <i_i_glide_lignum>  (1) 
45

>  <i_i_glide_posenum>  (1) 
226

>  <i_i_glide_rotatable_bonds>  (1) 
7

>  <i_lp_mmshare_version>  (1) 
72125

>  <i_m_source_file_index>  (1) 
27

>  <i_f3d_flags>  (1) 
0

>  <num_sample>  (1) 
100

>  <b_lp_Chiralities_Consistent>  (1) 
1

>  <r_epik_Charging_Adjusted_Penalty>  (1) 
0.19178745009715187

>  <r_epik_Ionization_Penalty>  (1) 
0.029917907437945299

>  <r_epik_Ionization_Penalty_Charging>  (1) 
0.0050195782491265998

>  <r_epik_Ionization_Penalty_Neutral>  (1) 
0.024898329188818697

>  <r_epik_State_Penalty>  (1) 
0.18676787184802526

>  <r_glide_ring_energy>  (1) 
0

>  <r_i_docking_score>  (1) 
-5.3976911936111156

>  <r_i_glide_ecoul>  (1) 
-7.8764249849364827

>  <r_i_glide_eff_state_penalty>  (1) 
0.18676787184802526

>  <r_i_glide_einternal>  (1) 
13.959482700412195

>  <r_i_glide_emodel>  (1) 
-30.548514559130361

>  <r_i_glide_emodel_strain>  (1) 
2.431562804543546

>  <r_i_glide_energy>  (1) 
-32.088282452458841

>  <r_i_glide_erotb>  (1) 
0.66727664270853937

>  <r_i_glide_esite>  (1) 
0

>  <r_i_glide_evdw>  (1) 
-24.211857467522361

>  <r_i_glide_gscore>  (1) 
-5.5844590654591411

>  <r_i_glide_gscore_strain>  (1) 
0

>  <r_i_glide_hbond>  (1) 
-0.16

>  <r_i_glide_ligand_efficiency>  (1) 
-0.22490379973379648

>  <r_i_glide_ligand_efficiency_ln>  (1) 
-1.2919151865407152

>  <r_i_glide_ligand_efficiency_sa>  (1) 
-0.64873481705314284

>  <r_i_glide_lipo>  (1) 
-1.3704014843697085

>  <r_i_glide_metal>  (1) 
-0

>  <r_i_glide_rewards>  (1) 
-2.3292776026813815

>  <r_lp_Energy>  (1) 
35.064892999999998

>  <r_lp_tautomer_probability>  (1) 
0.99990000499974985

>  <s_epik_cmdline>  (1) 
J2VwaWtfcHl0aG9uJywgJy1waHQnLCAnMS4wJywgJy1waCcsICc3LjQnLCAnLXRuJywgJzgnLCAnLW1hJywgJzUwMCcsICctaW1hZScsICc8aW5maWxlLm1hZT4nLCAnLW9tYWUnLCAnPG91dGZpbGUubWFlPic=

>  <s_epik_input>  (1) 
W0NIM11bQ0hdKFtDSDNdKVtDQEhdKFtDSF09TylbQ0gyXVtDQEBIXShbQ0gyXTEpW0NIMl1bQ0BIXTJbQ0BASF0xW0NIMl1bQ0gyXU4oW0NAQEhdMjMpW0NIMl1bQ0gyXVtDQEBIXTNbTkhdW0NIMl1DKD1PKVtPSF0=

>  <s_glide_docking_method>  (1) 
confgen

>  <s_i_glide_gridfile>  (1) 
gpcr_drd2_6luq_protein_autoprepared_prepared

>  <s_lp_Force_Field>  (1) 
S-OPLS

>  <s_lp_Variant>  (1) 
DiffSBDD_26-1

>  <s_m_source_file>  (1) 
generated_generic_title2_ligand_DiffSBDD_2026-06-23_prepared.sdf

>  <GenAI_Model>  (1) 
DiffSBDD

>  <Protein>  (1) 
generic_title2

$$$$
DiffSBDD_90
     RDKit          3D

  0  0  0  0  0  0  0  0  0  0999 V3000
M  V30 BEGIN CTAB
M  V30 COUNTS 80 84 0 0 1
M  V30 BEGIN ATOM
M  V30 1 C 8.933755 4.362934 -16.263193 0
M  V30 2 C 7.884104 3.261702 -16.456683 0 CFG=1
M  V30 3 C 8.035526 0.399661 -18.701889 0
M  V30 4 C 9.544251 5.854260 -10.446222 0 CFG=2
M  V30 5 C 9.479382 1.909870 -18.063876 0
M  V30 6 C 7.563020 -0.754480 -19.419141 0 CFG=2
M  V30 7 C 7.520605 4.103263 -12.763680 0 CFG=2
M  V30 8 O 7.695919 5.990162 -15.253323 0 CHG=-1
M  V30 9 C 8.535934 5.042669 -14.936193 0 CFG=1
M  V30 10 C 9.364792 8.447122 -10.479560 0
M  V30 11 O 12.191612 8.333390 -10.176869 0
M  V30 12 C 8.284396 2.188578 -17.420133 0
M  V30 13 C 8.105902 1.559871 -14.372432 0 CFG=2
M  V30 14 O 12.975061 8.101111 -8.096592 0 CHG=-1
M  V30 15 O 10.174109 5.966585 -11.590205 0 CHG=-1
M  V30 16 C 7.554630 5.564567 -12.141461 0 CFG=2
M  V30 17 N 8.097758 5.590135 -10.746892 0 CHG=1
M  V30 18 N 7.619729 4.116017 -14.255238 0 CFG=1 CHG=1
M  V30 19 C 10.975433 7.450085 -6.182030 0
M  V30 20 C 6.219406 6.337865 -12.172626 0
M  V30 21 O 8.175446 0.343430 -15.088586 0
M  V30 22 O 5.716001 6.406992 -13.491971 0
M  V30 23 O 6.175421 0.854901 -12.368527 0
M  V30 24 C 6.625248 1.842944 -14.469299 0 CFG=1
M  V30 25 C 12.098731 7.990252 -8.982032 0
M  V30 26 C 6.219384 3.327278 -12.389003 0
M  V30 27 N 9.238443 0.803849 -18.829655 0
M  V30 28 O 11.231206 8.639825 -5.980102 0
M  V30 29 C 8.939716 -0.960778 -20.216127 0
M  V30 30 N 7.411172 1.212427 -17.856808 0 CHG=1
M  V30 31 C 9.661219 7.184265 -9.647117 0 CFG=2
M  V30 32 O 5.039508 -2.133853 -19.610249 0
M  V30 33 O 6.467300 -0.432477 -20.255350 0
M  V30 34 C 5.731473 -1.538084 -20.658251 0
M  V30 35 C 11.170436 6.424081 -5.071083 0
M  V30 36 C 10.747621 7.328302 -8.550433 0
M  V30 37 C 5.919261 2.003918 -13.151185 0 CFG=2
M  V30 38 C 4.175692 -1.245630 -18.917495 0
M  V30 39 N 10.487753 6.898754 -7.356458 0
M  V30 40 C 10.074533 0.063219 -19.711924 0
M  V30 41 C 7.606857 2.845900 -15.023945 0 CFG=1
M  V30 42 H 9.929163 3.937616 -16.142603 0
M  V30 43 H 8.993025 5.049609 -17.110658 0
M  V30 44 H 6.975448 3.726291 -16.842812 0
M  V30 45 H 9.776235 5.055997 -9.740390 0
M  V30 46 H 10.441541 2.402457 -18.033610 0
M  V30 47 H 7.362913 -1.530594 -18.678083 0
M  V30 48 H 8.394934 3.565782 -12.394909 0
M  V30 49 H 9.440562 5.183073 -14.339407 0
M  V30 50 H 9.268453 9.308686 -9.823543 0
M  V30 51 H 10.112551 8.646181 -11.241186 0
M  V30 52 H 8.435064 8.357396 -11.037187 0
M  V30 53 H 8.590381 1.543876 -13.398124 0
M  V30 54 H 8.175104 6.222848 -12.739584 0
M  V30 55 H 7.617816 6.354445 -10.273862 0
M  V30 56 H 6.375680 7.360297 -11.827393 0
M  V30 57 H 5.471575 5.905593 -11.506361 0
M  V30 58 H 7.898911 -0.364853 -14.523534 0
M  V30 59 H 6.449487 6.489049 -14.119719 0
M  V30 60 H 5.740807 0.107091 -12.757437 0
M  V30 61 H 6.057924 1.262400 -15.199287 0
M  V30 62 H 6.163247 3.189686 -11.309377 0
M  V30 63 H 5.363263 3.956310 -12.625426 0
M  V30 64 H 9.277222 -1.993583 -20.143812 0
M  V30 65 H 8.760234 -0.783417 -21.277765 0
M  V30 66 H 8.805864 7.105220 -8.985969 0
M  V30 67 H 5.012636 -1.217982 -21.409907 0
M  V30 68 H 6.382767 -2.281000 -21.121228 0
M  V30 69 H 11.639554 6.878403 -4.198097 0
M  V30 70 H 10.208875 6.010617 -4.766069 0
M  V30 71 H 11.805879 5.609387 -5.418465 0
M  V30 72 H 4.862625 1.969834 -13.394252 0
M  V30 73 H 3.426047 -1.824887 -18.381448 0
M  V30 74 H 4.730724 -0.649755 -18.193782 0
M  V30 75 H 3.649515 -0.563657 -19.585007 0
M  V30 76 H 10.464208 0.715339 -20.493959 0
M  V30 77 H 10.872530 -0.410000 -19.139773 0
M  V30 78 H 6.443553 1.122324 -17.576723 0
M  V30 79 H 7.831032 4.742460 -10.272562 0
M  V30 80 H 6.763243 4.575668 -14.530322 0
M  V30 END ATOM
M  V30 BEGIN BOND
M  V30 1 1 2 1
M  V30 2 1 6 3
M  V30 3 1 9 1
M  V30 4 1 9 8
M  V30 5 1 12 2
M  V30 6 2 12 5
M  V30 7 1 15 4
M  V30 8 1 16 7
M  V30 9 1 17 4
M  V30 10 1 17 16
M  V30 11 1 18 7
M  V30 12 1 18 9
M  V30 13 1 20 16
M  V30 14 1 21 13
M  V30 15 1 22 20
M  V30 16 1 24 13
M  V30 17 2 25 11
M  V30 18 1 25 14
M  V30 19 1 26 7
M  V30 20 1 27 3
M  V30 21 1 27 5
M  V30 22 2 28 19
M  V30 23 1 29 6
M  V30 24 2 30 3
M  V30 25 1 30 12
M  V30 26 1 31 4
M  V30 27 1 31 10
M  V30 28 1 33 6
M  V30 29 1 34 32
M  V30 30 1 34 33
M  V30 31 1 35 19
M  V30 32 1 36 25
M  V30 33 1 36 31
M  V30 34 1 37 23
M  V30 35 1 37 24
M  V30 36 1 37 26
M  V30 37 1 38 32
M  V30 38 1 39 19
M  V30 39 2 39 36
M  V30 40 1 40 27
M  V30 41 1 40 29
M  V30 42 1 41 2 CFG=3
M  V30 43 1 41 13
M  V30 44 1 41 18
M  V30 45 1 41 24
M  V30 46 1 42 1
M  V30 47 1 43 1
M  V30 48 1 2 44 CFG=3
M  V30 49 1 4 45 CFG=1
M  V30 50 1 46 5
M  V30 51 1 6 47 CFG=1
M  V30 52 1 7 48 CFG=1
M  V30 53 1 9 49 CFG=1
M  V30 54 1 50 10
M  V30 55 1 51 10
M  V30 56 1 52 10
M  V30 57 1 13 53 CFG=1
M  V30 58 1 16 54 CFG=3
M  V30 59 1 55 17
M  V30 60 1 56 20
M  V30 61 1 57 20
M  V30 62 1 58 21
M  V30 63 1 59 22
M  V30 64 1 60 23
M  V30 65 1 24 61 CFG=3
M  V30 66 1 62 26
M  V30 67 1 63 26
M  V30 68 1 64 29
M  V30 69 1 65 29
M  V30 70 1 31 66 CFG=1
M  V30 71 1 67 34
M  V30 72 1 68 34
M  V30 73 1 69 35
M  V30 74 1 70 35
M  V30 75 1 71 35
M  V30 76 1 37 72 CFG=3
M  V30 77 1 73 38
M  V30 78 1 74 38
M  V30 79 1 75 38
M  V30 80 1 76 40
M  V30 81 1 77 40
M  V30 82 1 78 30
M  V30 83 1 79 17
M  V30 84 1 18 80 CFG=3
M  V30 END BOND
M  V30 END CTAB
M  END
>  <i_epik_Tot_Q>  (1) 
0

>  <i_epik_Tot_abs_Q>  (1) 
6

>  <i_i_glide_confnum>  (1) 
145

>  <i_i_glide_lignum>  (1) 
166

>  <i_i_glide_posenum>  (1) 
183

>  <i_i_glide_rotatable_bonds>  (1) 
15

>  <i_lp_mmshare_version>  (1) 
72125

>  <i_m_source_file_index>  (1) 
91

>  <i_f3d_flags>  (1) 
0

>  <num_sample>  (1) 
100

>  <b_lp_Chiralities_Consistent>  (1) 
1

>  <r_epik_Charging_Adjusted_Penalty>  (1) 
0.35079833336250127

>  <r_epik_Ionization_Penalty>  (1) 
1.4702178244609605

>  <r_epik_Ionization_Penalty_Charging>  (1) 
0.099885809697688246

>  <r_epik_Ionization_Penalty_Neutral>  (1) 
1.3703320147632723

>  <r_epik_State_Penalty>  (1) 
0.25091252366481304

>  <r_glide_ring_energy>  (1) 
0

>  <r_i_docking_score>  (1) 
-5.3902105148614012

>  <r_i_glide_ecoul>  (1) 
-9.4687023002686601

>  <r_i_glide_eff_state_penalty>  (1) 
0.25091252366481304

>  <r_i_glide_einternal>  (1) 
9.6826622653950203

>  <r_i_glide_emodel>  (1) 
-51.614345926944857

>  <r_i_glide_emodel_strain>  (1) 
5.5205921944385636

>  <r_i_glide_energy>  (1) 
-45.770059692735693

>  <r_i_glide_erotb>  (1) 
0.57888693115673628

>  <r_i_glide_esite>  (1) 
-0.14533968735254785

>  <r_i_glide_evdw>  (1) 
-36.301357392467033

>  <r_i_glide_gscore>  (1) 
-5.6411230385262146

>  <r_i_glide_gscore_strain>  (1) 
0.38014804860964091

>  <r_i_glide_hbond>  (1) 
-0.20000000000000001

>  <r_i_glide_ligand_efficiency>  (1) 
-0.13146854914296099

>  <r_i_glide_ligand_efficiency_ln>  (1) 
-1.1435510985260471

>  <r_i_glide_ligand_efficiency_sa>  (1) 
-0.45333211772286242

>  <r_i_glide_lipo>  (1) 
-1.673998315632538

>  <r_i_glide_metal>  (1) 
-0

>  <r_i_glide_rewards>  (1) 
-1.3454468006438549

>  <r_lp_Energy>  (1) 
62.791187999999998

>  <r_lp_tautomer_probability>  (1) 
1

>  <s_epik_Chemistry_Notes>  (1) 
This compound has an imine and may undergo hydrolysis. This compound contains an acetal/aminal-like group ( X-CH(R)-Y where X, Y are N, S, or O) that may be acid/base labile, releasing an aldehyde.

>  <s_epik_cmdline>  (1) 
J2VwaWtfcHl0aG9uJywgJy1waHQnLCAnMS4wJywgJy1waCcsICc3LjQnLCAnLXRuJywgJzgnLCAnLW1hJywgJzUwMCcsICctaW1hZScsICc8aW5maWxlLm1hZT4nLCAnLW9tYWUnLCAnPG91dGZpbGUubWFlPic=

>  <s_epik_input>  (1) 
W0NIM11PW0NIMl1PW0NASF0xW0NIMl1bQ0gyXW4oYzEyKVtjSF1jKG4yKVtDQEBIXTNbQ0gyXVtDQEBIXShbT0hdKU4oW0NAQF0zNDUpW0NASF0oW0NIMl1bQ0BIXShbT0hdKVtDQEBIXTVbQ0BIXTRbT0hdKVtDQEBIXShbQ0gyXVtPSF0pW05IXVtDQEBIXShbT0hdKVtDQEhdKFtDSDNdKUMoXEMoPU8pW09IXSk9Ti9DKD1PKVtDSDNd

>  <s_glide_docking_method>  (1) 
confgen

>  <s_i_glide_gridfile>  (1) 
gpcr_drd2_6luq_protein_autoprepared_prepared

>  <s_lp_Force_Field>  (1) 
S-OPLS

>  <s_lp_Variant>  (1) 
DiffSBDD_90-1

>  <s_m_source_file>  (1) 
generated_generic_title2_ligand_DiffSBDD_2026-06-23_prepared.sdf

>  <GenAI_Model>  (1) 
DiffSBDD

>  <Protein>  (1) 
generic_title2

$$$$
DiffSBDD_26
     RDKit          3D

  0  0  0  0  0  0  0  0  0  0999 V3000
M  V30 BEGIN CTAB
M  V30 COUNTS 56 58 0 0 1
M  V30 BEGIN ATOM
M  V30 1 C 6.123730 5.350001 -14.194256 0
M  V30 2 O 12.174981 7.800142 -10.573195 0
M  V30 3 C 7.207904 5.831115 -17.427165 0 CFG=1
M  V30 4 C 9.197609 4.948831 -8.954643 0
M  V30 5 C 5.605704 7.719163 -16.648340 0
M  V30 6 C 8.405340 5.568906 -13.581626 0
M  V30 7 C 8.100982 5.230577 -11.039941 0 CFG=2
M  V30 8 C 7.691027 4.808377 -8.740738 0
M  V30 9 C 5.631842 4.373263 -11.921918 0
M  V30 10 N 7.059184 5.190183 -10.018239 0 CFG=2 CHG=1
M  V30 11 N 9.375475 7.191472 -10.056155 0
M  V30 12 C 7.421844 4.753456 -18.504199 0
M  V30 13 C 10.359820 7.645153 -9.066708 0
M  V30 14 C 5.782694 4.536338 -10.407973 0
M  V30 15 C 5.734176 6.373566 -17.404484 0
M  V30 16 C 6.152403 5.597045 -12.683848 0 CFG=1
M  V30 17 C 7.448300 5.907269 -14.738910 0 CFG=1
M  V30 18 C 9.331484 5.741558 -10.274889 0 CFG=1
M  V30 19 O 6.722017 3.742447 -18.532290 0
M  V30 20 C 7.849920 5.293819 -16.099601 0
M  V30 21 O 11.775457 9.525182 -9.223240 0 CHG=-1
M  V30 22 C 7.617192 5.944619 -12.323347 0 CFG=2
M  V30 23 C 5.148750 6.614252 -18.818479 0
M  V30 24 C 11.533575 8.387013 -9.674470 0
M  V30 25 H 5.222446 5.763375 -14.636113 0
M  V30 26 H 6.082119 4.278470 -14.396322 0
M  V30 27 H 7.807803 6.665415 -17.779759 0
M  V30 28 H 9.682779 3.990318 -9.094707 0
M  V30 29 H 9.649598 5.358005 -8.056282 0
M  V30 30 H 6.485648 8.340469 -16.785024 0
M  V30 31 H 5.456099 7.618277 -15.579370 0
M  V30 32 H 4.752765 8.301097 -16.990799 0
M  V30 33 H 8.613392 4.498653 -13.588579 0
M  V30 34 H 9.366593 6.074134 -13.602428 0
M  V30 35 H 8.308073 4.191903 -11.303646 0
M  V30 36 H 7.375283 3.826914 -8.388076 0
M  V30 37 H 7.375754 5.530171 -7.989049 0
M  V30 38 H 4.590498 4.185255 -12.178140 0
M  V30 39 H 6.179110 3.482116 -12.231849 0
M  V30 40 H 8.448983 7.563393 -9.788971 0
M  V30 41 H 8.220779 4.953926 -19.220212 0
M  V30 42 H 9.856563 8.298352 -8.352530 0
M  V30 43 H 10.832251 6.854539 -8.495302 0
M  V30 44 H 5.698090 3.545274 -9.972889 0
M  V30 45 H 4.960930 5.154343 -10.044671 0
M  V30 46 H 5.093938 5.635361 -16.922516 0
M  V30 47 H 5.523560 6.456660 -12.443580 0
M  V30 48 H 7.419708 6.993898 -14.808942 0
M  V30 49 H 10.175359 5.454498 -10.872096 0
M  V30 50 H 7.731407 4.210597 -16.026061 0
M  V30 51 H 8.926118 5.438488 -16.201889 0
M  V30 52 H 7.672057 7.026689 -12.186518 0
M  V30 53 H 5.772598 7.300973 -19.393515 0
M  V30 54 H 4.152163 7.052291 -18.762316 0
M  V30 55 H 5.034263 5.695409 -19.392764 0
M  V30 56 H 6.851400 6.181995 -9.885574 0
M  V30 END ATOM
M  V30 BEGIN BOND
M  V30 1 1 8 4
M  V30 2 1 10 7
M  V30 3 1 10 8
M  V30 4 1 12 3
M  V30 5 1 13 11
M  V30 6 1 14 9
M  V30 7 1 14 10
M  V30 8 1 15 3
M  V30 9 1 15 5
M  V30 10 1 16 1
M  V30 11 1 16 9
M  V30 12 1 17 1
M  V30 13 1 17 6
M  V30 14 1 18 4
M  V30 15 1 18 7
M  V30 16 1 18 11
M  V30 17 2 19 12
M  V30 18 1 20 3
M  V30 19 1 20 17
M  V30 20 1 22 6
M  V30 21 1 22 7
M  V30 22 1 22 16
M  V30 23 1 23 15
M  V30 24 2 24 2
M  V30 25 1 24 13
M  V30 26 1 24 21
M  V30 27 1 25 1
M  V30 28 1 26 1
M  V30 29 1 3 27 CFG=3
M  V30 30 1 28 4
M  V30 31 1 29 4
M  V30 32 1 30 5
M  V30 33 1 31 5
M  V30 34 1 32 5
M  V30 35 1 33 6
M  V30 36 1 34 6
M  V30 37 1 7 35 CFG=3
M  V30 38 1 36 8
M  V30 39 1 37 8
M  V30 40 1 38 9
M  V30 41 1 39 9
M  V30 42 1 40 11
M  V30 43 1 41 12
M  V30 44 1 42 13
M  V30 45 1 43 13
M  V30 46 1 44 14
M  V30 47 1 45 14
M  V30 48 1 46 15
M  V30 49 1 16 47 CFG=3
M  V30 50 1 17 48 CFG=3
M  V30 51 1 18 49 CFG=3
M  V30 52 1 50 20
M  V30 53 1 51 20
M  V30 54 1 22 52 CFG=1
M  V30 55 1 53 23
M  V30 56 1 54 23
M  V30 57 1 55 23
M  V30 58 1 10 56 CFG=1
M  V30 END BOND
M  V30 END CTAB
M  END
>  <i_epik_Tot_Q>  (1) 
0

>  <i_epik_Tot_abs_Q>  (1) 
2

>  <i_i_glide_confnum>  (1) 
16

>  <i_i_glide_lignum>  (1) 
46

>  <i_i_glide_posenum>  (1) 
228

>  <i_i_glide_rotatable_bonds>  (1) 
7

>  <i_lp_mmshare_version>  (1) 
72125

>  <i_m_source_file_index>  (1) 
27

>  <i_f3d_flags>  (1) 
0

>  <num_sample>  (1) 
100

>  <b_lp_Chiralities_Consistent>  (1) 
1

>  <r_epik_Charging_Adjusted_Penalty>  (1) 
0.19178745009715187

>  <r_epik_Ionization_Penalty>  (1) 
0.029917907437945299

>  <r_epik_Ionization_Penalty_Charging>  (1) 
0.0050195782491265998

>  <r_epik_Ionization_Penalty_Neutral>  (1) 
0.024898329188818697

>  <r_epik_State_Penalty>  (1) 
0.18676787184802526

>  <r_glide_ring_energy>  (1) 
0

>  <r_i_docking_score>  (1) 
-5.3814848158317288

>  <r_i_glide_ecoul>  (1) 
-10.531358367551407

>  <r_i_glide_eff_state_penalty>  (1) 
0.18676787184802526

>  <r_i_glide_einternal>  (1) 
12.218886916092185

>  <r_i_glide_emodel>  (1) 
-28.47981501367483

>  <r_i_glide_emodel_strain>  (1) 
4.3437455862549825

>  <r_i_glide_energy>  (1) 
-28.591616115125461

>  <r_i_glide_erotb>  (1) 
0.66727664270853937

>  <r_i_glide_esite>  (1) 
-0.10000000000000001

>  <r_i_glide_evdw>  (1) 
-18.060257747574056

>  <r_i_glide_gscore>  (1) 
-5.5682526876797542

>  <r_i_glide_gscore_strain>  (1) 
0.085936396563745632

>  <r_i_glide_hbond>  (1) 
-0.35999999999999999

>  <r_i_glide_ligand_efficiency>  (1) 
-0.2242285339929887

>  <r_i_glide_ligand_efficiency_ln>  (1) 
-1.2880362566758894

>  <r_i_glide_ligand_efficiency_sa>  (1) 
-0.64678701360409618

>  <r_i_glide_lipo>  (1) 
-1.3945402920449073

>  <r_i_glide_metal>  (1) 
-0

>  <r_i_glide_rewards>  (1) 
-1.9842087923957175

>  <r_lp_Energy>  (1) 
40.618023999999998

>  <r_lp_tautomer_probability>  (1) 
0.99990000499974985

>  <s_epik_cmdline>  (1) 
J2VwaWtfcHl0aG9uJywgJy1waHQnLCAnMS4wJywgJy1waCcsICc3LjQnLCAnLXRuJywgJzgnLCAnLW1hJywgJzUwMCcsICctaW1hZScsICc8aW5maWxlLm1hZT4nLCAnLW9tYWUnLCAnPG91dGZpbGUubWFlPic=

>  <s_epik_input>  (1) 
W0NIM11bQ0hdKFtDSDNdKVtDQEhdKFtDSF09TylbQ0gyXVtDQEBIXShbQ0gyXTEpW0NIMl1bQ0BIXTJbQ0BASF0xW0NIMl1bQ0gyXU4oW0NAQEhdMjMpW0NIMl1bQ0gyXVtDQEBIXTNbTkhdW0NIMl1DKD1PKVtPSF0=

>  <s_glide_docking_method>  (1) 
confgen

>  <s_i_glide_gridfile>  (1) 
gpcr_drd2_6luq_protein_autoprepared_prepared

>  <s_lp_Force_Field>  (1) 
S-OPLS

>  <s_lp_Variant>  (1) 
DiffSBDD_26-2

>  <s_m_source_file>  (1) 
generated_generic_title2_ligand_DiffSBDD_2026-06-23_prepared.sdf

>  <GenAI_Model>  (1) 
DiffSBDD

>  <Protein>  (1) 
generic_title2

$$$$
DiffSBDD_79
     RDKit          3D

  0  0  0  0  0  0  0  0  0  0999 V3000
M  V30 BEGIN CTAB
M  V30 COUNTS 53 56 0 0 1
M  V30 BEGIN ATOM
M  V30 1 C 7.948608 4.027525 -14.017869 0
M  V30 2 C 11.586809 6.695249 -5.705893 0 CFG=2
M  V30 3 C 7.878715 2.861144 -16.140861 0
M  V30 4 C 9.775406 6.920829 -10.203728 0
M  V30 5 C 11.417308 7.501265 -6.983143 0
M  V30 6 C 8.763676 4.863225 -15.017253 0
M  V30 7 C 8.848467 4.038098 -16.308980 0
M  V30 8 N 10.901756 6.981822 -8.032965 0
M  V30 9 C 8.427814 4.967907 -10.794037 0
M  V30 10 C 10.674572 7.647853 -9.236399 0
M  V30 11 C 12.428420 6.790220 -3.177929 0
M  V30 12 C 10.414741 6.559135 -4.806271 0
M  V30 13 C 8.569621 6.856933 -12.328844 0
M  V30 14 C 12.412740 9.441668 -5.516229 0
M  V30 15 C 8.075838 5.577089 -12.013051 0
M  V30 16 C 9.418619 7.527228 -11.430251 0
M  V30 17 C 11.574483 8.896658 -4.355047 0 CFG=1
M  V30 18 C 7.165828 4.855738 -12.983900 0
M  V30 19 C 11.902596 8.961974 -6.895289 0
M  V30 20 C 11.612314 7.365705 -4.334112 0 CFG=2
M  V30 21 C 7.038233 3.184187 -14.904252 0
M  V30 22 C 9.272562 5.633690 -9.889198 0
M  V30 23 O 11.135684 8.747264 -9.553605 0
M  V30 24 C 11.832086 9.589569 -3.002856 0
M  V30 25 H 8.624085 3.348862 -13.494317 0
M  V30 26 H 12.175407 5.797457 -5.878660 0
M  V30 27 H 8.441789 1.941857 -15.972854 0
M  V30 28 H 7.259568 2.706982 -17.025151 0
M  V30 29 H 8.250923 5.802326 -15.230104 0
M  V30 30 H 9.750225 5.115934 -14.624569 0
M  V30 31 H 9.863376 3.679435 -16.483662 0
M  V30 32 H 8.571232 4.652615 -17.166149 0
M  V30 33 H 8.047049 3.990231 -10.551501 0
M  V30 34 H 13.442514 7.190225 -3.185019 0
M  V30 35 H 11.968103 7.018480 -2.218723 0
M  V30 36 H 12.466504 5.702804 -3.210857 0
M  V30 37 H 10.256125 5.590251 -4.347935 0
M  V30 38 H 9.522379 7.051603 -5.185028 0
M  V30 39 H 8.295433 7.325751 -13.261018 0
M  V30 40 H 13.462470 9.190244 -5.368229 0
M  V30 41 H 12.362608 10.527708 -5.524761 0
M  V30 42 H 9.788996 8.508145 -11.678030 0
M  V30 43 H 10.575408 9.181966 -4.632528 0
M  V30 44 H 6.500926 4.203122 -12.416822 0
M  V30 45 H 6.521832 5.583225 -13.480929 0
M  V30 46 H 12.688708 9.134967 -7.630173 0
M  V30 47 H 11.055074 9.590224 -7.156746 0
M  V30 48 H 6.673263 2.286948 -14.402559 0
M  V30 49 H 6.175411 3.785291 -15.185030 0
M  V30 50 H 9.532634 5.157784 -8.956127 0
M  V30 51 H 12.897893 9.676669 -2.792847 0
M  V30 52 H 11.375409 10.574994 -2.985268 0
M  V30 53 H 11.375401 9.068815 -2.164918 0
M  V30 END ATOM
M  V30 BEGIN BOND
M  V30 1 1 5 2
M  V30 2 1 6 1
M  V30 3 1 7 3
M  V30 4 1 7 6
M  V30 5 2 8 5
M  V30 6 1 10 4
M  V30 7 1 10 8
M  V30 8 1 12 2
M  V30 9 1 15 9
M  V30 10 2 15 13
M  V30 11 2 16 4
M  V30 12 1 16 13
M  V30 13 1 17 14
M  V30 14 1 18 1
M  V30 15 1 18 15
M  V30 16 1 19 5
M  V30 17 1 19 14
M  V30 18 1 20 2
M  V30 19 1 20 11 CFG=1
M  V30 20 1 20 12
M  V30 21 1 20 17
M  V30 22 1 21 1
M  V30 23 1 21 3
M  V30 24 1 22 4
M  V30 25 2 22 9
M  V30 26 2 23 10
M  V30 27 1 24 17
M  V30 28 1 25 1
M  V30 29 1 2 26 CFG=3
M  V30 30 1 27 3
M  V30 31 1 28 3
M  V30 32 1 29 6
M  V30 33 1 30 6
M  V30 34 1 31 7
M  V30 35 1 32 7
M  V30 36 1 33 9
M  V30 37 1 34 11
M  V30 38 1 35 11
M  V30 39 1 36 11
M  V30 40 1 37 12
M  V30 41 1 38 12
M  V30 42 1 39 13
M  V30 43 1 40 14
M  V30 44 1 41 14
M  V30 45 1 42 16
M  V30 46 1 17 43 CFG=3
M  V30 47 1 44 18
M  V30 48 1 45 18
M  V30 49 1 46 19
M  V30 50 1 47 19
M  V30 51 1 48 21
M  V30 52 1 49 21
M  V30 53 1 50 22
M  V30 54 1 51 24
M  V30 55 1 52 24
M  V30 56 1 53 24
M  V30 END BOND
M  V30 END CTAB
M  END
>  <i_epik_Tot_Q>  (1) 
0

>  <i_epik_Tot_abs_Q>  (1) 
0

>  <i_i_glide_confnum>  (1) 
74

>  <i_i_glide_lignum>  (1) 
137

>  <i_i_glide_posenum>  (1) 
58

>  <i_i_glide_rotatable_bonds>  (1) 
4

>  <i_lp_mmshare_version>  (1) 
72125

>  <i_m_source_file_index>  (1) 
80

>  <i_f3d_flags>  (1) 
0

>  <num_sample>  (1) 
100

>  <b_lp_Chiralities_Consistent>  (1) 
1

>  <r_epik_Charging_Adjusted_Penalty>  (1) 
0

>  <r_epik_Ionization_Penalty>  (1) 
0

>  <r_epik_Ionization_Penalty_Charging>  (1) 
0

>  <r_epik_Ionization_Penalty_Neutral>  (1) 
0

>  <r_epik_State_Penalty>  (1) 
-0

>  <r_glide_ring_energy>  (1) 
0

>  <r_i_docking_score>  (1) 
-5.3693319896336664

>  <r_i_glide_ecoul>  (1) 
1.2712317796713062

>  <r_i_glide_eff_state_penalty>  (1) 
-0

>  <r_i_glide_einternal>  (1) 
1.9988646036577666

>  <r_i_glide_emodel>  (1) 
-36.724003421143664

>  <r_i_glide_emodel_strain>  (1) 
0.080221246055984352

>  <r_i_glide_energy>  (1) 
-29.35655298122267

>  <r_i_glide_erotb>  (1) 
0.71538486133248902

>  <r_i_glide_esite>  (1) 
-0.010185410961361595

>  <r_i_glide_evdw>  (1) 
-30.627784760893977

>  <r_i_glide_gscore>  (1) 
-5.3693319896336664

>  <r_i_glide_gscore_strain>  (1) 
0

>  <r_i_glide_hbond>  (1) 
0

>  <r_i_glide_ligand_efficiency>  (1) 
-0.22372216623473609

>  <r_i_glide_ligand_efficiency_ln>  (1) 
-1.2851275277098362

>  <r_i_glide_ligand_efficiency_sa>  (1) 
-0.64532639624058141

>  <r_i_glide_lipo>  (1) 
-2.3919221957947419

>  <r_i_glide_metal>  (1) 
-0

>  <r_i_glide_rewards>  (1) 
-2.3419047731160489

>  <r_lp_Energy>  (1) 
53.127567999999997

>  <r_lp_tautomer_probability>  (1) 
1

>  <s_epik_Chemistry_Notes>  (1) 
This compound has an imine and may undergo hydrolysis.

>  <s_epik_cmdline>  (1) 
J2VwaWtfcHl0aG9uJywgJy1waHQnLCAnMS4wJywgJy1waCcsICc3LjQnLCAnLXRuJywgJzgnLCAnLW1hJywgJzUwMCcsICctaW1hZScsICc8aW5maWxlLm1hZT4nLCAnLW9tYWUnLCAnPG91dGZpbGUubWFlPic=

>  <s_epik_input>  (1) 
W0NIMl0xW0NIMl1bQ0gyXVtDSDJdW0NIXTFbQ0gyXWMoW2NIXVtjSF0yKVtjSF1bY0hdYzJDKD1PKVxOPUMoXFtDQEhdKFtDSDJdMylDMzRbQ0gzXSlbQ0gyXVtDSDJdW0NAQEhdNFtDSDNd

>  <s_glide_docking_method>  (1) 
confgen

>  <s_i_glide_gridfile>  (1) 
gpcr_drd2_6luq_protein_autoprepared_prepared

>  <s_lp_Force_Field>  (1) 
S-OPLS

>  <s_lp_Variant>  (1) 
DiffSBDD_79-1

>  <s_m_source_file>  (1) 
generated_generic_title2_ligand_DiffSBDD_2026-06-23_prepared.sdf

>  <GenAI_Model>  (1) 
DiffSBDD

>  <Protein>  (1) 
generic_title2

$$$$
DiffSBDD_62
     RDKit          3D

  0  0  0  0  0  0  0  0  0  0999 V3000
M  V30 BEGIN CTAB
M  V30 COUNTS 64 66 0 0 1
M  V30 BEGIN ATOM
M  V30 1 C 9.767443 6.358360 -10.319447 0
M  V30 2 C 6.467839 6.405002 -15.551623 0 CFG=1
M  V30 3 C 3.317223 7.021282 -17.347276 0
M  V30 4 C 4.826454 7.009608 -17.227842 0 CFG=2
M  V30 5 C 11.493759 8.793411 -6.759315 0
M  V30 6 C 7.858111 5.402308 -13.581514 0
M  V30 7 C 7.997523 5.822921 -12.108018 0 CFG=1
M  V30 8 C 11.246974 8.603043 -5.242330 0 CFG=1
M  V30 9 O 11.775407 7.428400 -4.669903 0
M  V30 10 O 8.807234 4.925888 -14.204194 0
M  V30 11 C 6.479753 5.582386 -14.239394 0
M  V30 12 C 11.834774 9.723708 -4.417499 0
M  V30 13 C 6.799777 7.874256 -15.238695 0
M  V30 14 O 9.527218 8.609108 -8.108974 0
M  V30 15 C 7.601607 4.647574 -11.192702 0 CFG=1
M  V30 16 C 7.757739 4.992252 -9.708579 0
M  V30 17 N 10.457288 6.667470 -7.401388 0
M  V30 18 C 5.510016 6.206212 -18.334894 0
M  V30 19 C 11.269702 6.198015 -5.132582 0
M  V30 20 C 9.360623 5.819344 -7.892057 0
M  V30 21 C 11.519295 6.006459 -6.638275 0
M  V30 22 C 7.335300 5.733002 -16.656957 0
M  V30 23 O 5.108997 6.389749 -15.978162 0
M  V30 24 C 10.407884 8.011726 -7.497168 0
M  V30 25 O 6.243031 4.282599 -11.366027 0
M  V30 26 C 7.016708 6.194279 -18.084752 0
M  V30 27 C 9.441030 6.316582 -11.800514 0
M  V30 28 C 9.020256 5.762461 -9.371694 0
M  V30 29 O 10.975409 10.790443 -4.640298 0
M  V30 30 H 10.657047 6.898474 -10.038711 0
M  V30 31 H 2.990158 7.337099 -18.336968 0
M  V30 32 H 2.933964 6.021801 -17.156424 0
M  V30 33 H 2.881740 7.702023 -16.614148 0
M  V30 34 H 5.160927 8.045304 -17.263143 0
M  V30 35 H 11.389612 9.842497 -7.032240 0
M  V30 36 H 12.501787 8.519384 -7.068794 0
M  V30 37 H 7.317711 6.654539 -11.914102 0
M  V30 38 H 10.175422 8.565356 -5.073366 0
M  V30 39 H 6.082296 4.586437 -14.433590 0
M  V30 40 H 5.800442 6.040723 -13.521309 0
M  V30 41 H 12.853453 9.969659 -4.716328 0
M  V30 42 H 11.835798 9.494168 -3.349232 0
M  V30 43 H 7.659066 7.986759 -14.579484 0
M  V30 44 H 6.964253 8.463359 -16.133965 0
M  V30 45 H 5.934664 8.343063 -14.785419 0
M  V30 46 H 8.237599 3.794474 -11.434233 0
M  V30 47 H 7.695483 4.095479 -9.098351 0
M  V30 48 H 6.918922 5.590404 -9.376050 0
M  V30 49 H 5.126681 5.186989 -18.343823 0
M  V30 50 H 5.288448 6.631951 -19.315452 0
M  V30 51 H 11.840458 5.473839 -4.567455 0
M  V30 52 H 10.218768 6.069684 -4.864024 0
M  V30 53 H 9.508260 4.790228 -7.585037 0
M  V30 54 H 8.456535 6.145666 -7.376564 0
M  V30 55 H 12.502647 6.388412 -6.892921 0
M  V30 56 H 11.603021 4.963819 -6.912052 0
M  V30 57 H 8.394996 5.902650 -16.471168 0
M  V30 58 H 7.189966 4.651814 -16.613307 0
M  V30 59 H 5.704008 4.972509 -11.005606 0
M  V30 60 H 7.516992 5.547889 -18.806509 0
M  V30 61 H 7.413143 7.190231 -18.245734 0
M  V30 62 H 9.576503 7.323725 -12.194814 0
M  V30 63 H 10.198395 5.689815 -12.272107 0
M  V30 64 H 10.971552 10.998683 -5.561739 0
M  V30 END ATOM
M  V30 BEGIN BOND
M  V30 1 1 4 3
M  V30 2 1 7 6
M  V30 3 1 8 5
M  V30 4 1 9 8
M  V30 5 2 10 6
M  V30 6 1 2 11 CFG=1
M  V30 7 1 11 6
M  V30 8 1 12 8
M  V30 9 1 13 2
M  V30 10 1 15 7
M  V30 11 1 16 15
M  V30 12 1 18 4
M  V30 13 1 19 9
M  V30 14 1 20 17
M  V30 15 1 21 17
M  V30 16 1 21 19
M  V30 17 1 22 2
M  V30 18 1 23 2
M  V30 19 1 23 4
M  V30 20 1 24 5
M  V30 21 2 24 14
M  V30 22 1 24 17
M  V30 23 1 25 15
M  V30 24 1 26 18
M  V30 25 1 26 22
M  V30 26 1 27 1
M  V30 27 1 27 7
M  V30 28 2 28 1
M  V30 29 1 28 16
M  V30 30 1 28 20
M  V30 31 1 29 12
M  V30 32 1 30 1
M  V30 33 1 31 3
M  V30 34 1 32 3
M  V30 35 1 33 3
M  V30 36 1 4 34 CFG=1
M  V30 37 1 35 5
M  V30 38 1 36 5
M  V30 39 1 7 37 CFG=3
M  V30 40 1 8 38 CFG=3
M  V30 41 1 39 11
M  V30 42 1 40 11
M  V30 43 1 41 12
M  V30 44 1 42 12
M  V30 45 1 43 13
M  V30 46 1 44 13
M  V30 47 1 45 13
M  V30 48 1 15 46 CFG=3
M  V30 49 1 47 16
M  V30 50 1 48 16
M  V30 51 1 49 18
M  V30 52 1 50 18
M  V30 53 1 51 19
M  V30 54 1 52 19
M  V30 55 1 53 20
M  V30 56 1 54 20
M  V30 57 1 55 21
M  V30 58 1 56 21
M  V30 59 1 57 22
M  V30 60 1 58 22
M  V30 61 1 59 25
M  V30 62 1 60 26
M  V30 63 1 61 26
M  V30 64 1 62 27
M  V30 65 1 63 27
M  V30 66 1 64 29
M  V30 END BOND
M  V30 END CTAB
M  END
>  <i_epik_Tot_Q>  (1) 
0

>  <i_epik_Tot_abs_Q>  (1) 
0

>  <i_i_glide_confnum>  (1) 
33

>  <i_i_glide_lignum>  (1) 
99

>  <i_i_glide_posenum>  (1) 
11

>  <i_i_glide_rotatable_bonds>  (1) 
8

>  <i_lp_mmshare_version>  (1) 
72125

>  <i_m_source_file_index>  (1) 
63

>  <i_f3d_flags>  (1) 
0

>  <num_sample>  (1) 
100

>  <b_lp_Chiralities_Consistent>  (1) 
1

>  <r_epik_Charging_Adjusted_Penalty>  (1) 
0

>  <r_epik_Ionization_Penalty>  (1) 
1.687438170051347e-07

>  <r_epik_Ionization_Penalty_Charging>  (1) 
0

>  <r_epik_Ionization_Penalty_Neutral>  (1) 
1.687438170051347e-07

>  <r_epik_State_Penalty>  (1) 
-0

>  <r_glide_ring_energy>  (1) 
0

>  <r_i_docking_score>  (1) 
-5.3688895397683281

>  <r_i_glide_ecoul>  (1) 
-0.94553026144036834

>  <r_i_glide_eff_state_penalty>  (1) 
-0

>  <r_i_glide_einternal>  (1) 
7.0367103291413144

>  <r_i_glide_emodel>  (1) 
-34.541694765240798

>  <r_i_glide_emodel_strain>  (1) 
0.62041285122647594

>  <r_i_glide_energy>  (1) 
-30.796713075070816

>  <r_i_glide_erotb>  (1) 
0.7044771691270324

>  <r_i_glide_esite>  (1) 
0

>  <r_i_glide_evdw>  (1) 
-29.851182813630448

>  <r_i_glide_gscore>  (1) 
-5.3688895397683281

>  <r_i_glide_gscore_strain>  (1) 
0

>  <r_i_glide_hbond>  (1) 
0

>  <r_i_glide_ligand_efficiency>  (1) 
-0.18513412206097682

>  <r_i_glide_ligand_efficiency_ln>  (1) 
-1.2293395613149831

>  <r_i_glide_ligand_efficiency_sa>  (1) 
-0.56879067821651663

>  <r_i_glide_lipo>  (1) 
-2.5308016844760712

>  <r_i_glide_metal>  (1) 
-0

>  <r_i_glide_rewards>  (1) 
-1.9081763445217117

>  <r_lp_Energy>  (1) 
16.964938999999998

>  <r_lp_tautomer_probability>  (1) 
1

>  <s_epik_cmdline>  (1) 
J2VwaWtfcHl0aG9uJywgJy1waHQnLCAnMS4wJywgJy1waCcsICc3LjQnLCAnLXRuJywgJzgnLCAnLW1hJywgJzUwMCcsICctaW1hZScsICc8aW5maWxlLm1hZT4nLCAnLW9tYWUnLCAnPG91dGZpbGUubWFlPic=

>  <s_epik_input>  (1) 
W09IXVtDSDJdW0NASF0xW0NIMl1DKD1PKU4oW0NIMl1bQ0gyXU8xKVtDSDJdQyg9W0NIXVtDSDJdMilbQ0gyXVtDQEBIXShbT0hdKVtDQEBIXTJDKD1PKVtDSDJdW0NAQF0zKFtDSDNdKVtDSDJdW0NIMl1bQ0gyXVtDQEhdKE8zKVtDSDNd

>  <s_glide_docking_method>  (1) 
confgen

>  <s_i_glide_gridfile>  (1) 
gpcr_drd2_6luq_protein_autoprepared_prepared

>  <s_lp_Force_Field>  (1) 
S-OPLS

>  <s_lp_Variant>  (1) 
DiffSBDD_62-1

>  <s_m_source_file>  (1) 
generated_generic_title2_ligand_DiffSBDD_2026-06-23_prepared.sdf

>  <GenAI_Model>  (1) 
DiffSBDD

>  <Protein>  (1) 
generic_title2

$$$$
DiffSBDD_16
     RDKit          3D

  0  0  0  0  0  0  0  0  0  0999 V3000
M  V30 BEGIN CTAB
M  V30 COUNTS 63 67 0 0 1
M  V30 BEGIN ATOM
M  V30 1 N 14.556897 6.519738 -19.760841 0
M  V30 2 C 9.344337 5.590205 -18.312299 0
M  V30 3 C 6.909749 5.637110 -14.683361 0 CFG=1
M  V30 4 C 5.853256 6.238830 -15.649863 0
M  V30 5 N 11.193513 4.440211 -16.954904 0
M  V30 6 N 15.873102 7.050003 -19.672649 0
M  V30 7 C 12.742050 4.397181 -16.966590 0
M  V30 8 C 11.866430 5.761854 -18.645099 0
M  V30 9 C 10.807436 5.224110 -17.915303 0
M  V30 10 C 6.933393 5.320926 -17.840887 0
M  V30 11 Cl 18.991805 6.568360 -18.785059 0
M  V30 12 C 17.494212 6.115162 -17.908859 0
M  V30 13 C 6.578284 4.790288 -10.785027 0
M  V30 14 O 9.117673 6.260162 -19.321723 0
M  V30 15 C 6.335876 5.521296 -13.236936 0 CFG=1
M  V30 16 C 16.322219 6.965795 -18.280492 0 CFG=2
M  V30 17 C 15.996358 5.206936 -16.618810 0
M  V30 18 N 9.841285 7.465863 -11.271491 0
M  V30 19 C 14.362567 5.642219 -18.608773 0 CFG=1
M  V30 20 C 15.239360 6.237305 -17.499660 0 CFG=2
M  V30 21 N 9.627133 5.637391 -12.629938 0 CHG=1
M  V30 22 C 7.290741 4.971755 -12.134831 0 CFG=1
M  V30 23 N 8.345150 5.105349 -17.477529 0
M  V30 24 O 5.887196 6.795964 -12.814754 0
M  V30 25 C 8.512738 5.840791 -11.980631 0
M  V30 26 C 8.580972 4.378275 -16.206798 0
M  V30 27 N 10.570353 6.609947 -12.273730 0
M  V30 28 N 17.375427 5.190257 -17.062222 0
M  V30 29 N 8.575411 6.875794 -11.185030 0
M  V30 30 C 12.954042 5.321005 -18.137535 0
M  V30 31 C 6.300808 6.509704 -17.098689 0
M  V30 32 C 7.397853 4.269306 -15.228653 0
M  V30 33 H 13.906523 7.302257 -19.710476 0
M  V30 34 H 7.756398 6.323856 -14.642840 0
M  V30 35 H 4.979325 5.590257 -15.673544 0
M  V30 36 H 5.486350 7.187649 -15.257748 0
M  V30 37 H 15.879746 8.014618 -19.999707 0
M  V30 38 H 13.159946 4.792237 -16.039927 0
M  V30 39 H 13.120743 3.392935 -17.158792 0
M  V30 40 H 11.724870 6.430560 -19.482130 0
M  V30 41 H 6.839546 5.506378 -18.911843 0
M  V30 42 H 6.359748 4.408137 -17.705172 0
M  V30 43 H 7.265820 4.405075 -10.032059 0
M  V30 44 H 6.165182 5.723621 -10.401986 0
M  V30 45 H 5.754114 4.081222 -10.867758 0
M  V30 46 H 5.458689 4.872897 -13.273809 0
M  V30 47 H 15.560479 4.209706 -16.686143 0
M  V30 48 H 15.951540 5.504273 -15.570147 0
M  V30 49 H 9.738159 8.409463 -11.640522 0
M  V30 50 H 14.798609 4.684251 -18.897887 0
M  V30 51 H 14.666558 6.941964 -16.894278 0
M  V30 52 H 7.633524 3.972822 -12.395770 0
M  V30 53 H 6.578228 7.429901 -12.926596 0
M  V30 54 H 9.316849 4.908948 -15.604462 0
M  V30 55 H 8.941448 3.371467 -16.424313 0
M  V30 56 H 10.797518 7.168043 -13.095090 0
M  V30 57 H 16.475696 7.971234 -17.887622 0
M  V30 58 H 7.804895 7.181932 -10.570290 0
M  V30 59 H 6.975378 7.359253 -17.132767 0
M  V30 60 H 5.419800 6.828529 -17.657141 0
M  V30 61 H 7.764876 3.638020 -14.426528 0
M  V30 62 H 6.575426 3.689191 -15.640757 0
M  V30 63 H 9.775554 4.870873 -13.274783 0
M  V30 END ATOM
M  V30 BEGIN BOND
M  V30 1 1 4 3
M  V30 2 1 6 1
M  V30 3 1 7 5
M  V30 4 1 9 2
M  V30 5 2 9 5
M  V30 6 1 9 8
M  V30 7 1 12 11
M  V30 8 2 14 2
M  V30 9 1 15 3
M  V30 10 1 16 6
M  V30 11 1 16 12
M  V30 12 1 19 1
M  V30 13 1 20 16
M  V30 14 1 20 17
M  V30 15 1 20 19
M  V30 16 1 22 13
M  V30 17 1 22 15
M  V30 18 1 23 2
M  V30 19 1 23 10
M  V30 20 1 24 15
M  V30 21 2 25 21
M  V30 22 1 25 22
M  V30 23 1 26 23
M  V30 24 1 27 18
M  V30 25 1 27 21
M  V30 26 2 28 12
M  V30 27 1 28 17
M  V30 28 1 29 18
M  V30 29 1 29 25
M  V30 30 1 30 7
M  V30 31 2 30 8
M  V30 32 1 30 19
M  V30 33 1 31 4
M  V30 34 1 31 10
M  V30 35 1 32 3
M  V30 36 1 32 26
M  V30 37 1 33 1
M  V30 38 1 3 34 CFG=1
M  V30 39 1 35 4
M  V30 40 1 36 4
M  V30 41 1 37 6
M  V30 42 1 38 7
M  V30 43 1 39 7
M  V30 44 1 40 8
M  V30 45 1 41 10
M  V30 46 1 42 10
M  V30 47 1 43 13
M  V30 48 1 44 13
M  V30 49 1 45 13
M  V30 50 1 15 46 CFG=3
M  V30 51 1 47 17
M  V30 52 1 48 17
M  V30 53 1 49 18
M  V30 54 1 19 50 CFG=3
M  V30 55 1 20 51 CFG=1
M  V30 56 1 22 52 CFG=3
M  V30 57 1 53 24
M  V30 58 1 54 26
M  V30 59 1 55 26
M  V30 60 1 56 27
M  V30 61 1 16 57 CFG=1
M  V30 62 1 58 29
M  V30 63 1 59 31
M  V30 64 1 60 31
M  V30 65 1 61 32
M  V30 66 1 62 32
M  V30 67 1 63 21
M  V30 END BOND
M  V30 END CTAB
M  END
>  <i_epik_Tot_Q>  (1) 
1

>  <i_epik_Tot_abs_Q>  (1) 
1

>  <i_i_glide_confnum>  (1) 
337

>  <i_i_glide_lignum>  (1) 
31

>  <i_i_glide_posenum>  (1) 
380

>  <i_i_glide_rotatable_bonds>  (1) 
7

>  <i_lp_mmshare_version>  (1) 
72125

>  <i_m_source_file_index>  (1) 
17

>  <i_f3d_flags>  (1) 
0

>  <num_sample>  (1) 
100

>  <b_lp_Chiralities_Consistent>  (1) 
1

>  <r_epik_Charging_Adjusted_Penalty>  (1) 
0.0018574901874323989

>  <r_epik_Ionization_Penalty>  (1) 
0.0019640421356001223

>  <r_epik_Ionization_Penalty_Charging>  (1) 
0.0018574901874323989

>  <r_epik_Ionization_Penalty_Neutral>  (1) 
0.00010655194816772327

>  <r_epik_State_Penalty>  (1) 
-0

>  <r_glide_ring_energy>  (1) 
0.16544429942790889

>  <r_i_docking_score>  (1) 
-5.3635162814825899

>  <r_i_glide_ecoul>  (1) 
-9.9532590305614512

>  <r_i_glide_eff_state_penalty>  (1) 
-0

>  <r_i_glide_einternal>  (1) 
5.3138220529705471

>  <r_i_glide_emodel>  (1) 
-60.405436634368982

>  <r_i_glide_emodel_strain>  (1) 
0

>  <r_i_glide_energy>  (1) 
-45.436955075713755

>  <r_i_glide_erotb>  (1) 
0.55955952450974478

>  <r_i_glide_esite>  (1) 
-0.11538857938747514

>  <r_i_glide_evdw>  (1) 
-35.483696045152307

>  <r_i_glide_gscore>  (1) 
-5.3635162814825899

>  <r_i_glide_gscore_strain>  (1) 
0

>  <r_i_glide_hbond>  (1) 
-0.46488388513671675

>  <r_i_glide_ligand_efficiency>  (1) 
-0.16760988379633093

>  <r_i_glide_ligand_efficiency_ln>  (1) 
-1.2010374993559321

>  <r_i_glide_ligand_efficiency_sa>  (1) 
-0.53212821171712688

>  <r_i_glide_lipo>  (1) 
-1.1947577321092218

>  <r_i_glide_metal>  (1) 
-0

>  <r_i_glide_rewards>  (1) 
-0.88087195251708705

>  <r_lp_Energy>  (1) 
1.743153

>  <r_lp_tautomer_probability>  (1) 
1

>  <s_epik_Chemistry_Notes>  (1) 
This compound has an imine and may undergo hydrolysis.

>  <s_epik_cmdline>  (1) 
J2VwaWtfcHl0aG9uJywgJy1waHQnLCAnMS4wJywgJy1waCcsICc3LjQnLCAnLXRuJywgJzgnLCAnLW1hJywgJzUwMCcsICctaW1hZScsICc8aW5maWxlLm1hZT4nLCAnLW9tYWUnLCAnPG91dGZpbGUubWFlPic=

>  <s_epik_input>  (1) 
Q2xDPTFbTkhdW0NIMl1bQ0BASF0oQzEyKVtDQEhdKFtOSF1bTkhdMilDKD1bQ0hdMylbQ0gyXU49QzNDKD1PKU4oW0NIMl1bQ0gyXTQpW0NIMl1bQ0gyXVtDSDJdW0NASF00W0NASF0oW09IXSlbQ0BIXShbQ0gzXSlDNT1OW05IXVtOSF1bTkhdNQ==

>  <s_glide_docking_method>  (1) 
confgen

>  <s_i_glide_gridfile>  (1) 
gpcr_drd2_6luq_protein_autoprepared_prepared

>  <s_lp_Force_Field>  (1) 
S-OPLS

>  <s_lp_Variant>  (1) 
DiffSBDD_16-1

>  <s_m_source_file>  (1) 
generated_generic_title2_ligand_DiffSBDD_2026-06-23_prepared.sdf

>  <GenAI_Model>  (1) 
DiffSBDD

>  <Protein>  (1) 
generic_title2

$$$$
DiffSBDD_40
     RDKit          3D

  0  0  0  0  0  0  0  0  0  0999 V3000
M  V30 BEGIN CTAB
M  V30 COUNTS 89 95 0 0 1
M  V30 BEGIN ATOM
M  V30 1 N 9.375817 6.683032 -10.125961 0
M  V30 2 C 9.673304 4.790776 -8.502420 0
M  V30 3 C 8.676829 5.366539 -18.541491 0
M  V30 4 C 14.699437 7.818801 -19.146546 0
M  V30 5 C 7.936256 4.959595 -17.387710 0
M  V30 6 C 8.977286 5.266946 -9.864780 0 CFG=2
M  V30 7 C 6.084582 6.398828 -18.079789 0
M  V30 8 C 12.226837 6.144655 -19.226885 0 CFG=1
M  V30 9 O 7.656999 6.186962 -12.439260 0
M  V30 10 C 10.092004 4.835211 -18.825193 0 CFG=1
M  V30 11 C 8.502915 3.952704 -16.385476 0 CFG=1
M  V30 12 N 5.775594 7.261331 -11.999268 0
M  V30 13 C 8.549465 4.407356 -11.063284 0 CFG=1
M  V30 14 C 10.145647 2.452847 -17.694390 0
M  V30 15 N 14.219171 9.990206 -22.454208 0 CHG=1
M  V30 16 C 6.384212 6.341296 -12.823020 0
M  V30 17 O 11.845963 4.883805 -17.103742 0
M  V30 18 C 10.208698 6.124050 -8.097927 0
M  V30 19 C 13.379786 5.833322 -18.397279 0
M  V30 20 C 9.618416 5.038409 -13.276961 0
M  V30 21 C 10.433820 8.411151 -8.766176 0
M  V30 22 C 10.017042 7.094297 -8.999644 0
M  V30 23 N 11.175910 5.647960 -18.245517 0
M  V30 24 C 14.745128 6.307088 -18.844395 0
M  V30 25 O 5.861976 5.736862 -13.757956 0
M  V30 26 C 8.095956 6.283983 -19.447754 0
M  V30 27 N 13.674289 7.856137 -21.436837 0
M  V30 28 C 12.154894 7.658508 -19.507495 0
M  V30 29 C 6.646124 5.489773 -17.168372 0
M  V30 30 C 10.300506 3.298537 -18.972705 0 CFG=1
M  V30 31 C 6.805201 6.790253 -19.218554 0
M  V30 32 C 10.845119 6.379782 -6.869640 0
M  V30 33 C 7.549020 4.801378 -9.994715 0
M  V30 34 C 11.287219 7.690591 -6.589895 0
M  V30 35 C 14.679501 8.617280 -22.175809 0
M  V30 36 C 9.428105 2.721657 -20.107306 0
M  V30 37 C 8.786892 2.570099 -16.990716 0
M  V30 38 C 8.303202 4.915436 -12.495532 0 CFG=2
M  V30 39 C 11.082181 8.714598 -7.544075 0
M  V30 40 O 9.646165 4.390228 -15.686687 0
M  V30 41 C 13.129371 5.182007 -17.321081 0
M  V30 42 C 9.497557 5.438828 -14.761948 0
M  V30 43 C 13.495034 8.234503 -20.034375 0 CFG=1
M  V30 44 H 8.672393 7.299291 -10.514412 0
M  V30 45 H 8.941946 4.411058 -7.789546 0
M  V30 46 H 10.448152 4.052360 -8.685243 0
M  V30 47 H 14.607371 8.349927 -18.198124 0
M  V30 48 H 15.651476 8.148004 -19.561300 0
M  V30 49 H 5.095382 6.796470 -17.904568 0
M  V30 50 H 12.278110 5.547812 -20.138491 0
M  V30 51 H 10.174855 5.133342 -19.870231 0
M  V30 52 H 7.731389 3.786418 -15.630841 0
M  V30 53 H 6.317374 7.659217 -11.235007 0
M  V30 54 H 4.803156 7.478998 -12.156858 0
M  V30 55 H 8.975409 3.406601 -11.044557 0
M  V30 56 H 10.944321 2.679421 -16.991093 0
M  V30 57 H 10.309372 1.404053 -17.944822 0
M  V30 58 H 14.901703 10.459889 -23.031544 0
M  V30 59 H 13.339253 9.976846 -22.949400 0
M  V30 60 H 10.175410 4.108511 -13.186157 0
M  V30 61 H 10.228634 5.788813 -12.774186 0
M  V30 62 H 10.263360 9.180634 -9.504648 0
M  V30 63 H 15.494254 6.086337 -18.082851 0
M  V30 64 H 15.027814 5.758987 -19.744166 0
M  V30 65 H 8.644736 6.598719 -20.323308 0
M  V30 66 H 12.787106 7.834470 -21.921966 0
M  V30 67 H 11.921255 8.165656 -18.571967 0
M  V30 68 H 11.329095 7.890190 -20.180763 0
M  V30 69 H 6.084037 5.191072 -16.297239 0
M  V30 70 H 11.332704 3.157718 -19.295020 0
M  V30 71 H 6.369782 7.489034 -19.917247 0
M  V30 72 H 10.990009 5.590412 -6.151336 0
M  V30 73 H 6.818601 5.589322 -10.148986 0
M  V30 74 H 7.197251 4.002242 -9.347296 0
M  V30 75 H 11.775314 7.911062 -5.652230 0
M  V30 76 H 15.639351 8.640028 -21.661162 0
M  V30 77 H 14.855536 8.118124 -23.129448 0
M  V30 78 H 8.363391 2.840520 -19.904790 0
M  V30 79 H 9.633654 3.214689 -21.057646 0
M  V30 80 H 9.618697 1.657251 -20.251758 0
M  V30 81 H 8.789719 1.844808 -16.176256 0
M  V30 82 H 7.970232 2.270205 -17.647397 0
M  V30 83 H 7.669066 4.181772 -12.996606 0
M  V30 84 H 11.414978 9.719313 -7.337439 0
M  V30 85 H 13.813048 4.849180 -16.554832 0
M  V30 86 H 10.403746 5.990150 -15.000161 0
M  V30 87 H 8.623892 6.058950 -14.968387 0
M  V30 88 H 13.408853 9.318887 -19.992389 0
M  V30 89 H 14.117354 10.524893 -21.599396 0
M  V30 END ATOM
M  V30 BEGIN BOND
M  V30 1 1 5 3
M  V30 2 1 6 1 CFG=3
M  V30 3 1 6 2
M  V30 4 1 10 3
M  V30 5 1 11 5
M  V30 6 1 13 6
M  V30 7 1 16 9
M  V30 8 1 16 12
M  V30 9 1 18 2
M  V30 10 1 19 8
M  V30 11 1 22 1
M  V30 12 1 22 18
M  V30 13 2 22 21
M  V30 14 1 23 8
M  V30 15 1 23 10
M  V30 16 1 23 17
M  V30 17 1 24 4
M  V30 18 1 24 19
M  V30 19 2 25 16
M  V30 20 2 26 3
M  V30 21 1 28 8
M  V30 22 2 29 5
M  V30 23 1 29 7
M  V30 24 1 30 10
M  V30 25 1 30 14
M  V30 26 2 31 7
M  V30 27 1 31 26
M  V30 28 2 32 18
M  V30 29 1 33 6
M  V30 30 1 33 13
M  V30 31 1 34 32
M  V30 32 1 35 15
M  V30 33 1 35 27
M  V30 34 1 36 30
M  V30 35 1 37 11
M  V30 36 1 37 14
M  V30 37 1 38 9
M  V30 38 1 38 13
M  V30 39 1 38 20
M  V30 40 1 39 21
M  V30 41 2 39 34
M  V30 42 1 40 11
M  V30 43 1 41 17
M  V30 44 2 41 19
M  V30 45 1 42 20
M  V30 46 1 42 40
M  V30 47 1 43 4
M  V30 48 1 43 27
M  V30 49 1 43 28
M  V30 50 1 44 1
M  V30 51 1 45 2
M  V30 52 1 46 2
M  V30 53 1 47 4
M  V30 54 1 48 4
M  V30 55 1 49 7
M  V30 56 1 8 50 CFG=3
M  V30 57 1 10 51 CFG=3
M  V30 58 1 11 52 CFG=1
M  V30 59 1 53 12
M  V30 60 1 54 12
M  V30 61 1 13 55 CFG=3
M  V30 62 1 56 14
M  V30 63 1 57 14
M  V30 64 1 58 15
M  V30 65 1 59 15
M  V30 66 1 60 20
M  V30 67 1 61 20
M  V30 68 1 62 21
M  V30 69 1 63 24
M  V30 70 1 64 24
M  V30 71 1 65 26
M  V30 72 1 66 27
M  V30 73 1 67 28
M  V30 74 1 68 28
M  V30 75 1 69 29
M  V30 76 1 30 70 CFG=3
M  V30 77 1 71 31
M  V30 78 1 72 32
M  V30 79 1 73 33
M  V30 80 1 74 33
M  V30 81 1 75 34
M  V30 82 1 76 35
M  V30 83 1 77 35
M  V30 84 1 78 36
M  V30 85 1 79 36
M  V30 86 1 80 36
M  V30 87 1 81 37
M  V30 88 1 82 37
M  V30 89 1 38 83 CFG=3
M  V30 90 1 84 39
M  V30 91 1 85 41
M  V30 92 1 86 42
M  V30 93 1 87 42
M  V30 94 1 43 88 CFG=3
M  V30 95 1 89 15
M  V30 END BOND
M  V30 END CTAB
M  END
>  <i_epik_Tot_Q>  (1) 
1

>  <i_epik_Tot_abs_Q>  (1) 
1

>  <i_i_glide_confnum>  (1) 
443

>  <i_i_glide_lignum>  (1) 
66

>  <i_i_glide_posenum>  (1) 
106

>  <i_i_glide_rotatable_bonds>  (1) 
10

>  <i_lp_mmshare_version>  (1) 
72125

>  <i_m_source_file_index>  (1) 
41

>  <i_f3d_flags>  (1) 
0

>  <num_sample>  (1) 
100

>  <b_lp_Chiralities_Consistent>  (1) 
1

>  <r_epik_Charging_Adjusted_Penalty>  (1) 
0.00021732795814705282

>  <r_epik_Ionization_Penalty>  (1) 
0.031196808922400864

>  <r_epik_Ionization_Penalty_Charging>  (1) 
0.00021732795814705282

>  <r_epik_Ionization_Penalty_Neutral>  (1) 
0.030979480964253809

>  <r_epik_State_Penalty>  (1) 
-0

>  <r_glide_ring_energy>  (1) 
0

>  <r_i_docking_score>  (1) 
-5.3622159206440392

>  <r_i_glide_ecoul>  (1) 
-9.2136228072791404

>  <r_i_glide_eff_state_penalty>  (1) 
-0

>  <r_i_glide_einternal>  (1) 
21.281792831942681

>  <r_i_glide_emodel>  (1) 
-43.991876876869838

>  <r_i_glide_emodel_strain>  (1) 
2.4421534823849242

>  <r_i_glide_energy>  (1) 
-43.742182148752491

>  <r_i_glide_erotb>  (1) 
0.31563021086283022

>  <r_i_glide_esite>  (1) 
-0.23108501951090812

>  <r_i_glide_evdw>  (1) 
-34.528559341473347

>  <r_i_glide_gscore>  (1) 
-5.3622159206440392

>  <r_i_glide_gscore_strain>  (1) 
0

>  <r_i_glide_hbond>  (1) 
-0.21298814252606632

>  <r_i_glide_ligand_efficiency>  (1) 
-0.12470269582893115

>  <r_i_glide_ligand_efficiency_ln>  (1) 
-1.1262319983084617

>  <r_i_glide_ligand_efficiency_sa>  (1) 
-0.4368831826920731

>  <r_i_glide_lipo>  (1) 
-2.0269785933951034

>  <r_i_glide_metal>  (1) 
-0

>  <r_i_glide_rewards>  (1) 
-0.098322987909251813

>  <r_lp_Energy>  (1) 
52.272574999999996

>  <r_lp_tautomer_probability>  (1) 
1

>  <s_epik_Chemistry_Notes>  (1) 
This compound has an ester and may undergo hydrolysis at high or low pH. This compound contains an acetal/aminal-like group ( X-CH(R)-Y where X, Y are N, S, or O) that may be acid/base labile, releasing an aldehyde. This compound has a N-S or N-O group and may undergo hydrolysis at high or low pH.

>  <s_epik_cmdline>  (1) 
J2VwaWtfcHl0aG9uJywgJy1waHQnLCAnMS4wJywgJy1waCcsICc3LjQnLCAnLXRuJywgJzgnLCAnLW1hJywgJzUwMCcsICctaW1hZScsICc8aW5maWxlLm1hZT4nLCAnLW9tYWUnLCAnPG91dGZpbGUubWFlPic=

>  <s_epik_input>  (1) 
W2NIXTFbY0hdW2NIXVtjSF1jKFtDSDJdMiljMVtOSF1bQ0BAXTIzW0NAQEhdKFtDSDJdMylbQ0BASF0oT0MoPU8pW05IMl0pW0NIMl1bQ0gyXU9bQ0BASF0oYyhjNDUpW2NIXVtjSF1bY0hdW2NIXTUpW0NIMl1bQ0gyXVtDQEBIXShbQ0gzXSlbQ0BASF00TjZPW0NIXT1DKFtDQEBIXTY3KVtDSDJdW0NIMl1bQ0BIXShbQ0gyXTcpW05IXVtDSDJdW05IMl0=

>  <s_glide_docking_method>  (1) 
confgen

>  <s_i_glide_gridfile>  (1) 
gpcr_drd2_6luq_protein_autoprepared_prepared

>  <s_lp_Force_Field>  (1) 
S-OPLS

>  <s_lp_Variant>  (1) 
DiffSBDD_40-1

>  <s_m_source_file>  (1) 
generated_generic_title2_ligand_DiffSBDD_2026-06-23_prepared.sdf

>  <GenAI_Model>  (1) 
DiffSBDD

>  <Protein>  (1) 
generic_title2

$$$$
DiffSBDD_78
     RDKit          3D

  0  0  0  0  0  0  0  0  0  0999 V3000
M  V30 BEGIN CTAB
M  V30 COUNTS 80 84 0 0 1
M  V30 BEGIN ATOM
M  V30 1 C 9.766619 8.397514 -7.600422 0 CFG=2
M  V30 2 C 11.259604 8.790230 -7.663255 0
M  V30 3 C 6.733905 2.740126 -13.717375 0 CFG=1
M  V30 4 C 7.080588 4.524353 -15.847620 0 CFG=2
M  V30 5 C 9.375437 7.918354 -6.212610 0
M  V30 6 N 6.483744 6.216124 -17.608924 0
M  V30 7 C 8.310847 3.738351 -15.324448 0 CFG=1
M  V30 8 C 7.910916 4.958876 -13.136480 0 CFG=1
M  V30 9 N 9.405241 7.282520 -8.491705 0 CFG=2 CHG=1
M  V30 10 C 9.660987 6.036119 -7.750283 0
M  V30 11 N 7.957376 6.453095 -12.984619 0 CFG=1 CHG=1
M  V30 12 C 5.381531 4.418681 -12.470642 0
M  V30 13 C 7.405090 5.865698 -16.527762 0
M  V30 14 C 6.159789 6.361101 -20.040001 0
M  V30 15 O 6.174289 4.795246 -14.758276 0
M  V30 16 C 6.747542 7.185252 -12.537307 0
M  V30 17 C 6.464881 5.648523 -21.370117 0 CFG=1
M  V30 18 C 7.951048 1.926223 -13.334533 0
M  V30 19 C 6.540305 4.253558 -13.481907 0 CFG=2
M  V30 20 F 7.789062 5.579402 -21.525528 0
M  V30 21 C 9.387759 6.390218 -6.288672 0
M  V30 22 C 5.732334 3.990120 -11.037184 0
M  V30 23 O 6.093779 4.285931 -18.891666 0
M  V30 24 C 8.963353 4.576291 -14.209808 0
M  V30 25 C 5.908240 4.216645 -21.315448 0 CFG=1
M  V30 26 C 9.193257 6.426046 -10.791196 0
M  V30 27 C 6.728550 5.526923 -18.875142 0 CFG=2
M  V30 28 C 9.954905 7.362775 -9.859955 0
M  V30 29 C 9.169163 6.911969 -12.252216 0
M  V30 30 C 5.926283 6.431149 -22.578013 0
M  V30 31 C 6.380560 3.494793 -20.041886 0
M  V30 32 C 7.775406 2.434068 -14.757525 0 CFG=1
M  V30 33 F 4.575413 4.243456 -21.326620 0
M  V30 34 H 9.135853 9.234317 -7.880579 0
M  V30 35 H 11.485310 9.565451 -6.930274 0
M  V30 36 H 11.911103 7.941923 -7.449375 0
M  V30 37 H 11.539315 9.190353 -8.638235 0
M  V30 38 H 5.806682 2.179117 -13.816574 0
M  V30 39 H 6.579441 3.868297 -16.552101 0
M  V30 40 H 8.371109 8.277348 -5.985041 0
M  V30 41 H 10.047567 8.294946 -5.441048 0
M  V30 42 H 5.530718 6.026986 -17.313335 0
M  V30 43 H 9.017196 3.524958 -16.127423 0
M  V30 44 H 8.233570 4.515770 -12.199025 0
M  V30 45 H 9.032329 5.218176 -8.104578 0
M  V30 46 H 10.703857 5.739268 -7.870380 0
M  V30 47 H 4.975427 5.421468 -12.465786 0
M  V30 48 H 4.532638 3.830751 -12.815741 0
M  V30 49 H 8.425545 5.847809 -16.912356 0
M  V30 50 H 7.375411 6.649545 -15.772056 0
M  V30 51 H 5.085376 6.487877 -19.897663 0
M  V30 52 H 6.615203 7.352256 -20.021480 0
M  V30 53 H 6.364487 6.822887 -11.585008 0
M  V30 54 H 6.975425 8.239782 -12.385030 0
M  V30 55 H 5.965419 7.144327 -13.295477 0
M  V30 56 H 8.712275 2.364520 -12.695805 0
M  V30 57 H 7.800134 0.860804 -13.170884 0
M  V30 58 H 8.420538 5.990238 -5.985025 0
M  V30 59 H 10.153047 5.990201 -5.625465 0
M  V30 60 H 4.975414 4.330745 -10.342740 0
M  V30 61 H 5.775407 2.905563 -10.952574 0
M  V30 62 H 6.671348 4.405528 -10.677613 0
M  V30 63 H 9.775411 4.047923 -13.715946 0
M  V30 64 H 9.431818 5.449111 -14.665718 0
M  V30 65 H 6.204737 3.653160 -22.200672 0
M  V30 66 H 8.175406 6.338323 -10.419163 0
M  V30 67 H 9.614475 5.422233 -10.721900 0
M  V30 68 H 7.802749 5.383144 -19.008763 0
M  V30 69 H 11.025611 7.155318 -9.882648 0
M  V30 70 H 9.822184 8.391631 -10.195689 0
M  V30 71 H 10.078181 6.581586 -12.755590 0
M  V30 72 H 9.199175 8.001614 -12.301176 0
M  V30 73 H 4.843834 6.552413 -22.526770 0
M  V30 74 H 6.368882 7.426331 -22.629843 0
M  V30 75 H 6.158218 5.918513 -23.511910 0
M  V30 76 H 7.451374 3.290814 -20.088920 0
M  V30 77 H 5.879624 2.531153 -19.945837 0
M  V30 78 H 7.491264 1.698362 -15.508235 0
M  V30 79 H 8.391299 7.359285 -8.607563 0
M  V30 80 H 8.081566 6.787771 -13.929297 0
M  V30 END ATOM
M  V30 BEGIN BOND
M  V30 1 1 2 1
M  V30 2 1 5 1
M  V30 3 1 7 4
M  V30 4 1 9 1
M  V30 5 1 10 9
M  V30 6 1 11 8
M  V30 7 1 13 4
M  V30 8 1 13 6
M  V30 9 1 15 4
M  V30 10 1 16 11
M  V30 11 1 17 14
M  V30 12 1 18 3
M  V30 13 1 19 3
M  V30 14 1 19 8
M  V30 15 1 19 12 CFG=1
M  V30 16 1 19 15
M  V30 17 1 17 20 CFG=3
M  V30 18 1 21 5
M  V30 19 1 21 10
M  V30 20 1 22 12
M  V30 21 1 24 7
M  V30 22 1 24 8
M  V30 23 1 25 17
M  V30 24 1 27 6
M  V30 25 1 27 14
M  V30 26 1 27 23
M  V30 27 1 28 9
M  V30 28 1 28 26
M  V30 29 1 29 11
M  V30 30 1 29 26
M  V30 31 1 30 17
M  V30 32 1 31 23
M  V30 33 1 31 25
M  V30 34 1 32 3
M  V30 35 1 32 7
M  V30 36 1 32 18
M  V30 37 1 33 25
M  V30 38 1 1 34 CFG=3
M  V30 39 1 35 2
M  V30 40 1 36 2
M  V30 41 1 37 2
M  V30 42 1 3 38 CFG=3
M  V30 43 1 4 39 CFG=3
M  V30 44 1 40 5
M  V30 45 1 41 5
M  V30 46 1 42 6
M  V30 47 1 7 43 CFG=3
M  V30 48 1 8 44 CFG=1
M  V30 49 1 45 10
M  V30 50 1 46 10
M  V30 51 1 47 12
M  V30 52 1 48 12
M  V30 53 1 49 13
M  V30 54 1 50 13
M  V30 55 1 51 14
M  V30 56 1 52 14
M  V30 57 1 53 16
M  V30 58 1 54 16
M  V30 59 1 55 16
M  V30 60 1 56 18
M  V30 61 1 57 18
M  V30 62 1 58 21
M  V30 63 1 59 21
M  V30 64 1 60 22
M  V30 65 1 61 22
M  V30 66 1 62 22
M  V30 67 1 63 24
M  V30 68 1 64 24
M  V30 69 1 25 65 CFG=3
M  V30 70 1 66 26
M  V30 71 1 67 26
M  V30 72 1 27 68 CFG=3
M  V30 73 1 69 28
M  V30 74 1 70 28
M  V30 75 1 71 29
M  V30 76 1 72 29
M  V30 77 1 73 30
M  V30 78 1 74 30
M  V30 79 1 75 30
M  V30 80 1 76 31
M  V30 81 1 77 31
M  V30 82 1 32 78 CFG=3
M  V30 83 1 9 79 CFG=3
M  V30 84 1 11 80 CFG=3
M  V30 END BOND
M  V30 END CTAB
M  END
>  <i_epik_Tot_Q>  (1) 
2

>  <i_epik_Tot_abs_Q>  (1) 
2

>  <i_i_glide_confnum>  (1) 
881

>  <i_i_glide_lignum>  (1) 
131

>  <i_i_glide_posenum>  (1) 
79

>  <i_i_glide_rotatable_bonds>  (1) 
9

>  <i_lp_mmshare_version>  (1) 
72125

>  <i_m_source_file_index>  (1) 
79

>  <i_f3d_flags>  (1) 
0

>  <num_sample>  (1) 
100

>  <b_lp_Chiralities_Consistent>  (1) 
1

>  <r_epik_Charging_Adjusted_Penalty>  (1) 
0.22182564166484353

>  <r_epik_Ionization_Penalty>  (1) 
0.22182564166592098

>  <r_epik_Ionization_Penalty_Charging>  (1) 
0.060182310347739972

>  <r_epik_Ionization_Penalty_Neutral>  (1) 
0.16164333131818101

>  <r_epik_State_Penalty>  (1) 
0.16164333131710357

>  <r_glide_ring_energy>  (1) 
0

>  <r_i_docking_score>  (1) 
-5.3619252233801964

>  <r_i_glide_ecoul>  (1) 
-6.9512008606503546

>  <r_i_glide_eff_state_penalty>  (1) 
0.16164333131710357

>  <r_i_glide_einternal>  (1) 
7.4101064210040875

>  <r_i_glide_emodel>  (1) 
-43.656466113008349

>  <r_i_glide_emodel_strain>  (1) 
1.3592199696422256

>  <r_i_glide_energy>  (1) 
-36.280688563656604

>  <r_i_glide_erotb>  (1) 
0.50880729737642771

>  <r_i_glide_esite>  (1) 
-0.10578587911965508

>  <r_i_glide_evdw>  (1) 
-29.329487703006247

>  <r_i_glide_gscore>  (1) 
-5.5235685546972997

>  <r_i_glide_gscore_strain>  (1) 
0

>  <r_i_glide_hbond>  (1) 
-0.20000000000000001

>  <r_i_glide_ligand_efficiency>  (1) 
-0.16248258252667261

>  <r_i_glide_ligand_efficiency_ln>  (1) 
-1.1924644071167694

>  <r_i_glide_ligand_efficiency_sa>  (1) 
-0.52116846148068252

>  <r_i_glide_lipo>  (1) 
-1.494076738989548

>  <r_i_glide_metal>  (1) 
-0

>  <r_i_glide_rewards>  (1) 
-1.7233587197166573

>  <r_lp_Energy>  (1) 
71.261048000000002

>  <s_epik_Chemistry_Notes>  (1) 
This compound contains an acetal/aminal-like group ( X-CH(R)-Y where X, Y are N, S, or O) that may be acid/base labile, releasing an aldehyde.

>  <s_epik_cmdline>  (1) 
J2VwaWtfcHl0aG9uJywgJy1waHQnLCAnMS4wJywgJy1waCcsICc3LjQnLCAnLXRuJywgJzgnLCAnLW1hJywgJzUwMCcsICctaW1hZScsICc8aW5maWxlLm1hZT4nLCAnLW9tYWUnLCAnPG91dGZpbGUubWFlPic=

>  <s_epik_input>  (1) 
W0NIM11bQ0BASF0xW0NIMl1bQ0gyXVtDSDJdTjFbQ0gyXVtDSDJdW0NIMl1OKFtDSDNdKVtDQEBIXTJbQ0gyXVtDQEBIXShbQ0BASF0oW0NIMl0zKVtDQEBIXTNbQ0BAXTI0W0NIMl1bQ0gzXSlbQ0BASF0oTzQpW0NIMl1bTkhdW0NASF0oW0NIMl1bQ0BdNShGKVtDSDNdKU9bQ0gyXVtDQEhdNUY=

>  <s_glide_docking_method>  (1) 
confgen

>  <s_i_glide_gridfile>  (1) 
gpcr_drd2_6luq_protein_autoprepared_prepared

>  <s_lp_Force_Field>  (1) 
S-OPLS

>  <s_lp_Variant>  (1) 
DiffSBDD_78-3

>  <s_m_source_file>  (1) 
generated_generic_title2_ligand_DiffSBDD_2026-06-23_prepared.sdf

>  <GenAI_Model>  (1) 
DiffSBDD

>  <Protein>  (1) 
generic_title2

$$$$
DiffSBDD_76
     RDKit          3D

  0  0  0  0  0  0  0  0  0  0999 V3000
M  V30 BEGIN CTAB
M  V30 COUNTS 54 57 0 0 1
M  V30 BEGIN ATOM
M  V30 1 N 7.639741 4.390137 -11.558804 0 CHG=1
M  V30 2 N 8.633612 -0.531710 -18.321080 0
M  V30 3 C 9.094329 5.752604 -10.166451 0 CFG=1
M  V30 4 C 8.560891 -0.023909 -16.961329 0
M  V30 5 F 7.512451 4.800652 -14.365225 0
M  V30 6 C 8.251034 -1.683812 -18.824092 0
M  V30 7 C 9.543009 6.338973 -8.817938 0
M  V30 8 C 7.684593 5.128684 -10.281792 0
M  V30 9 C 6.411564 0.774588 -14.313254 0
M  V30 10 C 6.354932 3.797762 -11.958037 0
M  V30 11 C 10.386748 7.387667 -6.334541 0
M  V30 12 N 9.127774 0.231911 -19.310599 0
M  V30 13 C 10.960524 7.867264 -7.517556 0
M  V30 14 C 9.402886 6.390383 -6.385213 0
M  V30 15 C 11.188551 7.866801 -9.997906 0
M  V30 16 N 7.706747 -2.644862 -17.985233 0
M  V30 17 C 10.701872 7.264198 -11.319911 0
M  V30 18 C 8.976671 5.867841 -7.618430 0
M  V30 19 C 6.974485 1.338805 -15.476669 0
M  V30 20 C 9.267567 6.792679 -11.273958 0
M  V30 21 O 12.072239 8.720755 -9.995977 0
M  V30 22 C 7.356999 2.695826 -15.489090 0
M  V30 23 N 8.428193 -1.827838 -20.118064 0
M  V30 24 C 7.141320 0.497229 -16.720948 0
M  V30 25 C 6.217265 1.569140 -13.169461 0
M  V30 26 C 7.156723 3.493181 -14.347980 0
M  V30 27 C 6.581295 2.932612 -13.185637 0
M  V30 28 C 8.982104 -0.584108 -20.378055 0
M  V30 29 C 10.550741 7.349517 -8.762660 0
M  V30 30 H 8.318160 3.643679 -11.505676 0
M  V30 31 H 9.789459 4.935777 -10.348946 0
M  V30 32 H 8.821756 -0.811901 -16.252171 0
M  V30 33 H 9.293888 0.777038 -16.842011 0
M  V30 34 H 6.898609 5.883994 -10.273327 0
M  V30 35 H 7.472701 4.416994 -9.486246 0
M  V30 36 H 6.117707 -0.266851 -14.303648 0
M  V30 37 H 5.638587 4.585704 -12.192798 0
M  V30 38 H 5.936640 3.204551 -11.143029 0
M  V30 39 H 10.705767 7.782050 -5.380164 0
M  V30 40 H 11.722960 8.632482 -7.472549 0
M  V30 41 H 8.974455 6.015535 -5.471835 0
M  V30 42 H 7.410916 -3.543145 -18.337041 0
M  V30 43 H 7.618266 -2.491846 -16.986732 0
M  V30 44 H 10.731545 7.990226 -12.115122 0
M  V30 45 H 11.366997 6.454382 -11.617898 0
M  V30 46 H 8.221037 5.100801 -7.636867 0
M  V30 47 H 9.017289 6.404848 -12.259840 0
M  V30 48 H 8.594233 7.637162 -11.106754 0
M  V30 49 H 7.788982 3.127788 -16.380191 0
M  V30 50 H 6.829073 1.110791 -17.567583 0
M  V30 51 H 6.440314 -0.338379 -16.690042 0
M  V30 52 H 5.781249 1.135384 -12.282296 0
M  V30 53 H 9.285098 -0.277254 -21.368603 0
M  V30 54 H 7.922959 5.014159 -12.302146 0
M  V30 END ATOM
M  V30 BEGIN BOND
M  V30 1 1 4 2
M  V30 2 1 6 2
M  V30 3 1 7 3
M  V30 4 1 8 1
M  V30 5 1 8 3
M  V30 6 1 10 1
M  V30 7 1 12 2
M  V30 8 1 13 11
M  V30 9 2 14 11
M  V30 10 1 16 6
M  V30 11 1 17 15
M  V30 12 2 18 7
M  V30 13 1 18 14
M  V30 14 1 19 9
M  V30 15 1 20 3
M  V30 16 1 20 17
M  V30 17 2 21 15
M  V30 18 2 22 19
M  V30 19 2 23 6
M  V30 20 1 24 4
M  V30 21 1 24 19
M  V30 22 2 25 9
M  V30 23 1 26 5
M  V30 24 1 26 22
M  V30 25 1 27 10
M  V30 26 1 27 25
M  V30 27 2 27 26
M  V30 28 2 28 12
M  V30 29 1 28 23
M  V30 30 1 29 7
M  V30 31 2 29 13
M  V30 32 1 29 15
M  V30 33 1 30 1
M  V30 34 1 3 31 CFG=3
M  V30 35 1 32 4
M  V30 36 1 33 4
M  V30 37 1 34 8
M  V30 38 1 35 8
M  V30 39 1 36 9
M  V30 40 1 37 10
M  V30 41 1 38 10
M  V30 42 1 39 11
M  V30 43 1 40 13
M  V30 44 1 41 14
M  V30 45 1 42 16
M  V30 46 1 43 16
M  V30 47 1 44 17
M  V30 48 1 45 17
M  V30 49 1 46 18
M  V30 50 1 47 20
M  V30 51 1 48 20
M  V30 52 1 49 22
M  V30 53 1 50 24
M  V30 54 1 51 24
M  V30 55 1 52 25
M  V30 56 1 53 28
M  V30 57 1 54 1
M  V30 END BOND
M  V30 END CTAB
M  END
>  <i_epik_Tot_Q>  (1) 
1

>  <i_epik_Tot_abs_Q>  (1) 
1

>  <i_i_glide_confnum>  (1) 
62

>  <i_i_glide_lignum>  (1) 
125

>  <i_i_glide_posenum>  (1) 
394

>  <i_i_glide_rotatable_bonds>  (1) 
7

>  <i_lp_mmshare_version>  (1) 
72125

>  <i_m_source_file_index>  (1) 
77

>  <i_f3d_flags>  (1) 
0

>  <num_sample>  (1) 
100

>  <b_lp_Chiralities_Consistent>  (1) 
1

>  <r_epik_Charging_Adjusted_Penalty>  (1) 
0.13114515656656739

>  <r_epik_Ionization_Penalty>  (1) 
0.066343571056588849

>  <r_epik_Ionization_Penalty_Charging>  (1) 
0.065572578283283764

>  <r_epik_Ionization_Penalty_Neutral>  (1) 
0.00077099277330508725

>  <r_epik_State_Penalty>  (1) 
0.065572578283283625

>  <r_glide_ring_energy>  (1) 
0

>  <r_i_docking_score>  (1) 
-5.3576564171329375

>  <r_i_glide_ecoul>  (1) 
-5.2035083072544044

>  <r_i_glide_eff_state_penalty>  (1) 
0.065572578283283625

>  <r_i_glide_einternal>  (1) 
6.8481891105927737

>  <r_i_glide_emodel>  (1) 
-51.442830847974037

>  <r_i_glide_emodel_strain>  (1) 
0.1542483854852108

>  <r_i_glide_energy>  (1) 
-37.20839242169577

>  <r_i_glide_erotb>  (1) 
0.75361898126616078

>  <r_i_glide_esite>  (1) 
-0.045010712290348372

>  <r_i_glide_evdw>  (1) 
-32.004884114441367

>  <r_i_glide_gscore>  (1) 
-5.4232289954162214

>  <r_i_glide_gscore_strain>  (1) 
0

>  <r_i_glide_hbond>  (1) 
-0.2397112737510807

>  <r_i_glide_ligand_efficiency>  (1) 
-0.18474677300458406

>  <r_i_glide_ligand_efficiency_ln>  (1) 
-1.2267674610788915

>  <r_i_glide_ligand_efficiency_sa>  (1) 
-0.56760061919314753

>  <r_i_glide_lipo>  (1) 
-1.5052050642317552

>  <r_i_glide_metal>  (1) 
-0

>  <r_i_glide_rewards>  (1) 
-2.0061504745989684

>  <r_lp_Energy>  (1) 
27.011975

>  <r_lp_tautomer_probability>  (1) 
0.99994999147066566

>  <s_epik_cmdline>  (1) 
J2VwaWtfcHl0aG9uJywgJy1waHQnLCAnMS4wJywgJy1waCcsICc3LjQnLCAnLXRuJywgJzgnLCAnLW1hJywgJzUwMCcsICctaW1hZScsICc8aW5maWxlLm1hZT4nLCAnLW9tYWUnLCAnPG91dGZpbGUubWFlPic=

>  <s_epik_input>  (1) 
W2NIXTFbY0hdW2NIXVtjSF1jKGMxMilDKD1PKVtDSDJdW0NIMl1bQ0BIXTJbQ0gyXVtOSF1bQ0gyXWMoYyhGKVtjSF0zKVtjSF1bY0hdYzNbQ0gyXVtDSDJdbjRjKFtOSDJdKW5bY0hdbjQ=

>  <s_glide_docking_method>  (1) 
confgen

>  <s_i_glide_gridfile>  (1) 
gpcr_drd2_6luq_protein_autoprepared_prepared

>  <s_lp_Force_Field>  (1) 
S-OPLS

>  <s_lp_Variant>  (1) 
DiffSBDD_76-2

>  <s_m_source_file>  (1) 
generated_generic_title2_ligand_DiffSBDD_2026-06-23_prepared.sdf

>  <GenAI_Model>  (1) 
DiffSBDD

>  <Protein>  (1) 
generic_title2

$$$$
DiffSBDD_71
     RDKit          3D

  0  0  0  0  0  0  0  0  0  0999 V3000
M  V30 BEGIN CTAB
M  V30 COUNTS 55 57 0 0 1
M  V30 BEGIN ATOM
M  V30 1 C 9.068405 5.199312 -9.865866 0 CFG=2
M  V30 2 O 8.681244 7.510934 -12.042688 0
M  V30 3 C 8.079470 1.652815 -15.438599 0 CFG=1
M  V30 4 C 6.694496 2.747179 -12.978202 0
M  V30 5 C 9.470712 6.343730 -12.125288 0
M  V30 6 C 12.175530 8.918249 -6.864781 0
M  V30 7 C 8.255510 4.082718 -14.569007 0
M  V30 8 N 8.760416 5.337171 -11.334997 0
M  V30 9 C 11.375280 7.059465 -4.455541 0
M  V30 10 O 10.975478 10.253610 -5.281983 0
M  V30 11 O 7.102604 0.813130 -15.998951 0
M  V30 12 C 8.751350 4.040010 -12.030488 0
M  V30 13 C 7.774420 4.790187 -9.135171 0
M  V30 14 C 7.330867 1.354541 -13.212531 0 CFG=2
M  V30 15 C 11.916522 8.277587 -4.367181 0
M  V30 16 C 11.682444 7.862261 -7.506670 0
M  V30 17 C 11.986755 9.287462 -5.438806 0 CFG=1
M  V30 18 C 7.652128 3.136289 -15.625596 0
M  V30 19 O 8.407797 1.372327 -14.112352 0
M  V30 20 O 4.976717 -0.009644 -15.658091 0
M  V30 21 C 9.715472 6.390152 -9.082809 0
M  V30 22 C 7.653821 3.963785 -13.138810 0 CFG=2
M  V30 23 C 6.070821 0.343730 -15.221093 0
M  V30 24 C 10.746212 6.444775 -5.633394 0
M  V30 25 C 10.859454 6.779042 -6.952840 0
M  V30 26 O 10.174912 5.965766 -7.851272 0
M  V30 27 C 6.404450 0.252240 -13.723756 0
M  V30 28 O 9.775381 7.546751 -9.503068 0
M  V30 29 H 9.775344 4.372693 -9.770347 0
M  V30 30 H 8.366574 7.590555 -11.145813 0
M  V30 31 H 8.991607 1.474569 -16.005487 0
M  V30 32 H 6.251217 2.765724 -11.985263 0
M  V30 33 H 5.835986 2.881689 -13.632775 0
M  V30 34 H 9.541211 6.078183 -13.181026 0
M  V30 35 H 10.493003 6.501839 -11.779496 0
M  V30 36 H 12.768070 9.590207 -7.429034 0
M  V30 37 H 8.089946 5.105899 -14.908637 0
M  V30 38 H 9.336878 3.990208 -14.562736 0
M  V30 39 H 11.375227 6.468950 -3.550118 0
M  V30 40 H 11.153920 10.977282 -5.862764 0
M  V30 41 H 9.746410 3.800594 -12.406327 0
M  V30 42 H 8.575574 3.246219 -11.318959 0
M  V30 43 H 7.954323 4.475493 -8.105703 0
M  V30 44 H 7.044673 5.590175 -9.119294 0
M  V30 45 H 7.252223 3.990083 -9.646279 0
M  V30 46 H 7.766453 1.010782 -12.278397 0
M  V30 47 H 12.327448 8.586290 -3.415577 0
M  V30 48 H 11.922087 7.800719 -8.555741 0
M  V30 49 H 12.916712 9.810890 -5.208951 0
M  V30 50 H 6.574893 3.217108 -15.634644 0
M  V30 51 H 7.969739 3.438284 -16.625646 0
M  V30 52 H 7.006647 4.832587 -13.008044 0
M  V30 53 H 10.136364 5.590254 -5.428017 0
M  V30 54 H 5.481001 0.232426 -13.143898 0
M  V30 55 H 6.880971 -0.715699 -13.574660 0
M  V30 END ATOM
M  V30 BEGIN BOND
M  V30 1 1 5 2
M  V30 2 1 8 1
M  V30 3 1 8 5
M  V30 4 1 11 3
M  V30 5 1 12 8
M  V30 6 1 13 1
M  V30 7 1 14 4
M  V30 8 2 15 9
M  V30 9 2 16 6
M  V30 10 1 17 6
M  V30 11 1 17 10
M  V30 12 1 17 15
M  V30 13 1 18 3
M  V30 14 1 18 7
M  V30 15 1 19 3
M  V30 16 1 19 14
M  V30 17 1 21 1
M  V30 18 1 22 4
M  V30 19 1 22 7
M  V30 20 1 22 12
M  V30 21 1 23 11
M  V30 22 2 23 20
M  V30 23 1 24 9
M  V30 24 1 25 16
M  V30 25 2 25 24
M  V30 26 1 26 21
M  V30 27 1 26 25
M  V30 28 1 27 14
M  V30 29 1 27 23
M  V30 30 2 28 21
M  V30 31 1 1 29 CFG=3
M  V30 32 1 30 2
M  V30 33 1 3 31 CFG=3
M  V30 34 1 32 4
M  V30 35 1 33 4
M  V30 36 1 34 5
M  V30 37 1 35 5
M  V30 38 1 36 6
M  V30 39 1 37 7
M  V30 40 1 38 7
M  V30 41 1 39 9
M  V30 42 1 40 10
M  V30 43 1 41 12
M  V30 44 1 42 12
M  V30 45 1 43 13
M  V30 46 1 44 13
M  V30 47 1 45 13
M  V30 48 1 14 46 CFG=1
M  V30 49 1 47 15
M  V30 50 1 48 16
M  V30 51 1 17 49 CFG=1
M  V30 52 1 50 18
M  V30 53 1 51 18
M  V30 54 1 22 52 CFG=1
M  V30 55 1 53 24
M  V30 56 1 54 27
M  V30 57 1 55 27
M  V30 END BOND
M  V30 END CTAB
M  END
>  <i_epik_Tot_Q>  (1) 
0

>  <i_epik_Tot_abs_Q>  (1) 
0

>  <i_i_glide_confnum>  (1) 
44

>  <i_i_glide_lignum>  (1) 
116

>  <i_i_glide_posenum>  (1) 
252

>  <i_i_glide_rotatable_bonds>  (1) 
9

>  <i_lp_mmshare_version>  (1) 
72125

>  <i_m_source_file_index>  (1) 
72

>  <i_f3d_flags>  (1) 
0

>  <num_sample>  (1) 
100

>  <b_lp_Chiralities_Consistent>  (1) 
1

>  <r_epik_Charging_Adjusted_Penalty>  (1) 
0

>  <r_epik_Ionization_Penalty>  (1) 
0.0080147773199130048

>  <r_epik_Ionization_Penalty_Charging>  (1) 
0

>  <r_epik_Ionization_Penalty_Neutral>  (1) 
0.0080147773199130048

>  <r_epik_State_Penalty>  (1) 
-0

>  <r_glide_ring_energy>  (1) 
0.62074138562282444

>  <r_i_docking_score>  (1) 
-5.3568781106014436

>  <r_i_glide_ecoul>  (1) 
-2.5217380796330469

>  <r_i_glide_eff_state_penalty>  (1) 
-0

>  <r_i_glide_einternal>  (1) 
5.5651474532819725

>  <r_i_glide_emodel>  (1) 
-42.178736635730992

>  <r_i_glide_emodel_strain>  (1) 
1.0681309401011845

>  <r_i_glide_energy>  (1) 
-35.123043128280848

>  <r_i_glide_erotb>  (1) 
0.75718691864975285

>  <r_i_glide_esite>  (1) 
-0.076741043119486471

>  <r_i_glide_evdw>  (1) 
-32.601305048647802

>  <r_i_glide_gscore>  (1) 
-5.3568781106014436

>  <r_i_glide_gscore_strain>  (1) 
0

>  <r_i_glide_hbond>  (1) 
-0.06977423559622023

>  <r_i_glide_ligand_efficiency>  (1) 
-0.191317075378623

>  <r_i_glide_ligand_efficiency_ln>  (1) 
-1.2365247527025909

>  <r_i_glide_ligand_efficiency_sa>  (1) 
-0.5809513212262315

>  <r_i_glide_lipo>  (1) 
-2.5428534106408103

>  <r_i_glide_metal>  (1) 
-0

>  <r_i_glide_rewards>  (1) 
-1.4163703755173329

>  <r_lp_Energy>  (1) 
43.182693999999998

>  <r_lp_tautomer_probability>  (1) 
1

>  <s_epik_Chemistry_Notes>  (1) 
This compound has an ester and may undergo hydrolysis at high or low pH. This compound contains an acetal/aminal-like group ( X-CH(R)-Y where X, Y are N, S, or O) that may be acid/base labile, releasing an aldehyde.

>  <s_epik_cmdline>  (1) 
J2VwaWtfcHl0aG9uJywgJy1waHQnLCAnMS4wJywgJy1waCcsICc3LjQnLCAnLXRuJywgJzgnLCAnLW1hJywgJzUwMCcsICctaW1hZScsICc8aW5maWxlLm1hZT4nLCAnLW9tYWUnLCAnPG91dGZpbGUubWFlPic=

>  <s_epik_input>  (1) 
W09IXVtDQEBIXTFbQ0hdPVtDSF1DKD1bQ0hdW0NIXT1bQ0hdMSlPQyg9TylbQ0BIXShbQ0gzXSlOKFtDSDJdW09IXSlbQ0gyXVtDQEBIXShbQ0gyXVtDSDJdMilbQ0gyXVtDQEhdKE8zKVtDSDJdQyg9TylPW0NAQEhdMjM=

>  <s_glide_docking_method>  (1) 
confgen

>  <s_i_glide_gridfile>  (1) 
gpcr_drd2_6luq_protein_autoprepared_prepared

>  <s_lp_Force_Field>  (1) 
S-OPLS

>  <s_lp_Variant>  (1) 
DiffSBDD_71-2

>  <s_m_source_file>  (1) 
generated_generic_title2_ligand_DiffSBDD_2026-06-23_prepared.sdf

>  <GenAI_Model>  (1) 
DiffSBDD

>  <Protein>  (1) 
generic_title2

$$$$
DiffSBDD_87
     RDKit          3D

  0  0  0  0  0  0  0  0  0  0999 V3000
M  V30 BEGIN CTAB
M  V30 COUNTS 76 79 0 0 1
M  V30 BEGIN ATOM
M  V30 1 S 4.470272 8.548465 -21.186561 0
M  V30 2 C 11.184068 6.390372 -4.272103 0
M  V30 3 C 10.057820 7.144809 -10.657560 0
M  V30 4 C 9.334679 6.313059 -8.390222 0
M  V30 5 O 2.975437 11.188304 -21.583479 0
M  V30 6 C 5.896433 6.948511 -16.519181 0
M  V30 7 C 8.272553 4.880641 -14.301908 0
M  V30 8 C 2.589378 10.643036 -22.853868 0
M  V30 9 C 6.841465 7.318047 -22.034590 0
M  V30 10 C 6.840985 5.955943 -16.121665 0
M  V30 11 C 8.983188 8.749745 -7.628187 0
M  V30 12 C 4.025003 10.976512 -22.538647 0 CFG=2
M  V30 13 O 5.710233 6.365993 -20.167214 0
M  V30 14 C 8.644952 4.729358 -12.952290 0
M  V30 15 C 5.076895 9.927547 -22.208057 0
M  V30 16 C 5.987217 7.621607 -20.782812 0 CFG=2
M  V30 17 N 8.984514 6.504156 -9.836110 0 CFG=2 CHG=1
M  V30 18 C 6.994726 5.252483 -18.475919 0
M  V30 19 C 7.381701 5.109666 -17.131210 0
M  V30 20 C 11.079271 6.482853 -5.788268 0
M  V30 21 C 6.072217 6.238622 -18.848610 0
M  V30 22 C 5.520618 7.085179 -17.871238 0
M  V30 23 C 6.633862 6.568974 -13.654678 0
M  V30 24 C 11.212941 7.978738 -8.504987 0
M  V30 25 N 10.199399 7.358509 -6.273957 0
M  V30 26 C 9.954442 7.569654 -7.710001 0 CFG=2
M  V30 27 C 10.835865 8.280352 -9.958259 0
M  V30 28 O 11.775444 5.777179 -6.497648 0
M  V30 29 C 7.170524 4.780564 -9.727565 0
M  V30 30 C 9.156116 7.247274 -20.896193 0
M  V30 31 C 8.399560 5.290227 -10.483760 0 CFG=1
M  V30 32 C 7.253074 5.802488 -14.680834 0
M  V30 33 C 8.013061 5.486563 -11.953534 0
M  V30 34 C 8.129906 6.514618 -21.772196 0
M  V30 35 C 7.010698 6.408900 -12.308244 0
M  V30 36 H 11.375454 7.373079 -3.842799 0
M  V30 37 H 10.261316 5.990529 -3.851452 0
M  V30 38 H 11.998553 5.730124 -3.977690 0
M  V30 39 H 10.746621 6.390255 -11.017352 0
M  V30 40 H 9.608072 7.563399 -11.558710 0
M  V30 41 H 8.444369 6.047023 -7.822386 0
M  V30 42 H 10.013723 5.462958 -8.320658 0
M  V30 43 H 5.462272 7.610129 -15.791546 0
M  V30 44 H 8.770614 4.285057 -15.044852 0
M  V30 45 H 2.015609 11.322082 -23.480677 0
M  V30 46 H 2.257571 9.607524 -22.820252 0
M  V30 47 H 6.230413 6.775148 -22.756371 0
M  V30 48 H 7.138581 8.244647 -22.521509 0
M  V30 49 H 8.575461 9.081575 -8.579068 0
M  V30 50 H 8.175378 8.524784 -6.943685 0
M  V30 51 H 9.494780 9.590111 -7.184945 0
M  V30 52 H 4.414992 11.889962 -22.984553 0
M  V30 53 H 9.415332 4.019378 -12.685703 0
M  V30 54 H 5.906279 10.399722 -21.684468 0
M  V30 55 H 5.466391 9.543427 -23.150635 0
M  V30 56 H 6.570990 8.263837 -20.121991 0
M  V30 57 H 7.414552 4.599500 -19.226629 0
M  V30 58 H 8.092120 4.344457 -16.877305 0
M  V30 59 H 4.806434 7.843865 -18.156060 0
M  V30 60 H 5.859476 7.274334 -13.895080 0
M  V30 61 H 11.962401 7.190269 -8.508033 0
M  V30 62 H 11.688171 8.851149 -8.054506 0
M  V30 63 H 9.651556 7.903622 -5.625067 0
M  V30 64 H 11.741151 8.501244 -10.522801 0
M  V30 65 H 10.246062 9.190141 -9.985013 0
M  V30 66 H 6.662173 3.990258 -10.277480 0
M  V30 67 H 7.415409 4.375039 -8.747936 0
M  V30 68 H 6.457590 5.590230 -9.585079 0
M  V30 69 H 10.072622 6.663382 -20.804785 0
M  V30 70 H 9.421283 8.215161 -21.323125 0
M  V30 71 H 8.776429 7.415490 -19.888648 0
M  V30 72 H 9.159751 4.507560 -10.443246 0
M  V30 73 H 7.888922 5.547432 -21.332060 0
M  V30 74 H 8.596604 6.290039 -22.731928 0
M  V30 75 H 6.519816 6.993083 -11.545497 0
M  V30 76 H 8.214219 7.181076 -9.786812 0
M  V30 END ATOM
M  V30 BEGIN BOND
M  V30 1 1 8 5
M  V30 2 2 10 6
M  V30 3 1 12 5
M  V30 4 1 12 8
M  V30 5 2 14 7
M  V30 6 1 15 1
M  V30 7 1 15 12
M  V30 8 1 16 1
M  V30 9 1 16 9
M  V30 10 1 16 13
M  V30 11 1 17 3
M  V30 12 1 17 4
M  V30 13 1 19 10
M  V30 14 2 19 18
M  V30 15 1 20 2
M  V30 16 1 21 13
M  V30 17 1 21 18
M  V30 18 1 22 6
M  V30 19 2 22 21
M  V30 20 1 25 20
M  V30 21 1 26 4
M  V30 22 1 26 11
M  V30 23 1 26 24
M  V30 24 1 26 25 CFG=1
M  V30 25 1 27 3
M  V30 26 1 27 24
M  V30 27 2 28 20
M  V30 28 1 31 17
M  V30 29 1 31 29
M  V30 30 1 32 7
M  V30 31 1 32 10
M  V30 32 2 32 23
M  V30 33 1 33 14
M  V30 34 1 33 31
M  V30 35 1 34 9
M  V30 36 1 34 30
M  V30 37 1 35 23
M  V30 38 2 35 33
M  V30 39 1 36 2
M  V30 40 1 37 2
M  V30 41 1 38 2
M  V30 42 1 39 3
M  V30 43 1 40 3
M  V30 44 1 41 4
M  V30 45 1 42 4
M  V30 46 1 43 6
M  V30 47 1 44 7
M  V30 48 1 45 8
M  V30 49 1 46 8
M  V30 50 1 47 9
M  V30 51 1 48 9
M  V30 52 1 49 11
M  V30 53 1 50 11
M  V30 54 1 51 11
M  V30 55 1 12 52 CFG=3
M  V30 56 1 53 14
M  V30 57 1 54 15
M  V30 58 1 55 15
M  V30 59 1 16 56 CFG=1
M  V30 60 1 57 18
M  V30 61 1 58 19
M  V30 62 1 59 22
M  V30 63 1 60 23
M  V30 64 1 61 24
M  V30 65 1 62 24
M  V30 66 1 63 25
M  V30 67 1 64 27
M  V30 68 1 65 27
M  V30 69 1 66 29
M  V30 70 1 67 29
M  V30 71 1 68 29
M  V30 72 1 69 30
M  V30 73 1 70 30
M  V30 74 1 71 30
M  V30 75 1 31 72 CFG=3
M  V30 76 1 73 34
M  V30 77 1 74 34
M  V30 78 1 75 35
M  V30 79 1 17 76 CFG=1
M  V30 END BOND
M  V30 END CTAB
M  END
>  <i_epik_Tot_Q>  (1) 
1

>  <i_epik_Tot_abs_Q>  (1) 
1

>  <i_i_glide_confnum>  (1) 
1049

>  <i_i_glide_lignum>  (1) 
157

>  <i_i_glide_posenum>  (1) 
175

>  <i_i_glide_rotatable_bonds>  (1) 
12

>  <i_lp_mmshare_version>  (1) 
72125

>  <i_m_source_file_index>  (1) 
88

>  <i_f3d_flags>  (1) 
0

>  <num_sample>  (1) 
100

>  <b_lp_Chiralities_Consistent>  (1) 
1

>  <r_epik_Charging_Adjusted_Penalty>  (1) 
0.24591797925462006

>  <r_epik_Ionization_Penalty>  (1) 
0.12295908446121387

>  <r_epik_Ionization_Penalty_Charging>  (1) 
0.12295898962731001

>  <r_epik_Ionization_Penalty_Neutral>  (1) 
9.4833903855356945e-08

>  <r_epik_State_Penalty>  (1) 
0.12295898962731003

>  <r_glide_ring_energy>  (1) 
0

>  <r_i_docking_score>  (1) 
-5.3558061307180589

>  <r_i_glide_ecoul>  (1) 
-7.1164786177163641

>  <r_i_glide_eff_state_penalty>  (1) 
0.12295898962731003

>  <r_i_glide_einternal>  (1) 
13.080799846151416

>  <r_i_glide_emodel>  (1) 
-50.768852663359205

>  <r_i_glide_emodel_strain>  (1) 
1.3701879252167828

>  <r_i_glide_energy>  (1) 
-45.115046283882023

>  <r_i_glide_erotb>  (1) 
0.74116783978336576

>  <r_i_glide_esite>  (1) 
-0.10000000000000001

>  <r_i_glide_evdw>  (1) 
-37.998567666165656

>  <r_i_glide_gscore>  (1) 
-5.4787651203453693

>  <r_i_glide_gscore_strain>  (1) 
0

>  <r_i_glide_hbond>  (1) 
-0.18127417360711956

>  <r_i_glide_ligand_efficiency>  (1) 
-0.15302303230623027

>  <r_i_glide_ligand_efficiency_ln>  (1) 
-1.1757183114053702

>  <r_i_glide_ligand_efficiency_sa>  (1) 
-0.50054848565981003

>  <r_i_glide_lipo>  (1) 
-2.815905574291496

>  <r_i_glide_metal>  (1) 
-0

>  <r_i_glide_rewards>  (1) 
-0.15535303626438091

>  <r_lp_Energy>  (1) 
41.786876999999997

>  <r_lp_tautomer_probability>  (1) 
1

>  <s_epik_Chemistry_Notes>  (1) 
This compound contains an acetal/aminal-like group ( X-CH(R)-Y where X, Y are N, S, or O) that may be acid/base labile, releasing an aldehyde.

>  <s_epik_cmdline>  (1) 
J2VwaWtfcHl0aG9uJywgJy1waHQnLCAnMS4wJywgJy1waCcsICc3LjQnLCAnLXRuJywgJzgnLCAnLW1hJywgJzUwMCcsICctaW1hZScsICc8aW5maWxlLm1hZT4nLCAnLW9tYWUnLCAnPG91dGZpbGUubWFlPic=

>  <s_epik_input>  (1) 
W0NIMl0xT1tDQEhdMVtDSDJdU1tDQEhdKFtDSDJdW0NIMl1bQ0gzXSlPYyhbY0hdW2NIXTIpW2NIXVtjSF1jMi1jM1tjSF1bY0hdYyhbY0hdW2NIXTMpW0NASF0oW0NIM10pTihbQ0gyXVtDSDJdW0NIMl00KVtDSDJdW0NAQF00KFtDSDNdKVtOSF1DKD1PKVtDSDNd

>  <s_glide_docking_method>  (1) 
confgen

>  <s_i_glide_gridfile>  (1) 
gpcr_drd2_6luq_protein_autoprepared_prepared

>  <s_lp_Force_Field>  (1) 
S-OPLS

>  <s_lp_Variant>  (1) 
DiffSBDD_87-1

>  <s_m_source_file>  (1) 
generated_generic_title2_ligand_DiffSBDD_2026-06-23_prepared.sdf

>  <GenAI_Model>  (1) 
DiffSBDD

>  <Protein>  (1) 
generic_title2

$$$$
DiffSBDD_78
     RDKit          3D

  0  0  0  0  0  0  0  0  0  0999 V3000
M  V30 BEGIN CTAB
M  V30 COUNTS 81 85 0 0 1
M  V30 BEGIN ATOM
M  V30 1 C 6.903878 5.904420 -20.642506 0 CFG=2
M  V30 2 C 6.975032 7.177713 -19.778896 0
M  V30 3 C 5.857382 3.314170 -12.845766 0 CFG=1
M  V30 4 C 7.669382 4.707092 -11.326662 0 CFG=2
M  V30 5 C 5.593655 5.840907 -21.447974 0
M  V30 6 N 8.575469 5.990222 -9.393310 0 CHG=1
M  V30 7 C 6.452028 5.490544 -11.861715 0 CFG=1
M  V30 8 C 7.240326 4.944275 -14.241961 0 CFG=1
M  V30 9 N 6.912065 4.646556 -19.856827 0 CFG=2 CHG=1
M  V30 10 C 5.509608 4.321741 -19.542639 0
M  V30 11 N 8.481321 5.343004 -15.000456 0 CFG=1 CHG=1
M  V30 12 C 7.654363 2.349592 -14.312062 0
M  V30 13 C 8.809976 5.572905 -10.789512 0
M  V30 14 C 9.548481 6.494431 -7.232305 0
M  V30 15 O 8.131964 3.785713 -12.343184 0
M  V30 16 C 9.740599 5.301171 -14.217945 0
M  V30 17 C 10.833462 6.899881 -6.495560 0 CFG=1
M  V30 18 C 4.585718 4.068873 -13.185662 0
M  V30 19 C 7.243371 3.574158 -13.460050 0 CFG=2
M  V30 20 F 11.775365 5.990168 -6.717997 0
M  V30 21 C 4.736703 4.747610 -20.790508 0
M  V30 22 C 7.887999 1.040650 -13.539362 0
M  V30 23 O 10.238585 7.702027 -9.180707 0
M  V30 24 C 6.804411 6.075939 -13.257417 0
M  V30 25 C 11.302920 8.257680 -7.043590 0 CFG=1
M  V30 26 C 7.517198 4.930951 -17.363051 0
M  V30 27 C 9.928310 6.427074 -8.710681 0 CFG=2
M  V30 28 C 7.934738 4.483485 -18.785046 0
M  V30 29 C 8.699393 4.811309 -16.382520 0
M  V30 30 C 10.641291 6.924156 -4.988509 0
M  V30 31 C 11.419148 8.236786 -8.581981 0
M  V30 32 C 5.375375 4.433418 -11.954925 0 CFG=1
M  V30 33 F 10.430057 9.190209 -6.677149 0
M  V30 34 H 7.759527 5.900714 -21.319041 0
M  V30 35 H 6.944993 8.071463 -20.402473 0
M  V30 36 H 6.138123 7.241378 -19.082783 0
M  V30 37 H 7.902017 7.224571 -19.208190 0
M  V30 38 H 5.775397 2.333616 -12.386740 0
M  V30 39 H 7.342296 4.076150 -10.497545 0
M  V30 40 H 5.796661 5.578768 -22.487288 0
M  V30 41 H 5.074953 6.800835 -21.460652 0
M  V30 42 H 7.894789 6.765140 -9.371162 0
M  V30 43 H 6.129936 6.272879 -11.173349 0
M  V30 44 H 6.455192 4.879901 -14.988054 0
M  V30 45 H 5.374304 3.267220 -19.299133 0
M  V30 46 H 5.171455 4.918033 -18.694810 0
M  V30 47 H 8.575408 2.548058 -14.832347 0
M  V30 48 H 6.905939 2.181722 -15.087552 0
M  V30 49 H 9.725670 4.982373 -10.827587 0
M  V30 50 H 8.979316 6.466717 -11.386360 0
M  V30 51 H 8.745803 7.219054 -7.081203 0
M  V30 52 H 9.193491 5.523873 -6.894632 0
M  V30 53 H 9.942308 4.316642 -13.821805 0
M  V30 54 H 10.598913 5.590191 -14.824705 0
M  V30 55 H 9.711425 5.990242 -13.380318 0
M  V30 56 H 3.625194 3.590236 -13.036448 0
M  V30 57 H 4.574549 4.798760 -13.985003 0
M  V30 58 H 4.625641 3.903073 -21.471757 0
M  V30 59 H 3.737971 5.100992 -20.541036 0
M  V30 60 H 8.228298 0.255197 -14.214285 0
M  V30 61 H 6.991426 0.665151 -13.048860 0
M  V30 62 H 8.661411 1.170753 -12.785044 0
M  V30 63 H 5.946637 6.615755 -13.660745 0
M  V30 64 H 7.577901 6.835829 -13.148654 0
M  V30 65 H 12.248066 8.562056 -6.599849 0
M  V30 66 H 6.701242 4.294905 -17.032110 0
M  V30 67 H 7.145818 5.954165 -17.359133 0
M  V30 68 H 10.706414 5.695488 -8.894970 0
M  V30 69 H 8.853675 4.983656 -19.094947 0
M  V30 70 H 8.181415 3.421694 -18.743404 0
M  V30 71 H 9.517290 5.397383 -16.805457 0
M  V30 72 H 9.077329 3.792785 -16.378083 0
M  V30 73 H 9.818076 7.590230 -4.785033 0
M  V30 74 H 10.382661 5.947168 -4.588127 0
M  V30 75 H 11.525640 7.283891 -4.462329 0
M  V30 76 H 12.278127 7.636918 -8.886601 0
M  V30 77 H 11.593657 9.242881 -8.964436 0
M  V30 78 H 4.975402 4.121574 -10.991618 0
M  V30 79 H 7.170445 3.954801 -20.547307 0
M  V30 80 H 8.333176 6.328663 -15.166790 0
M  V30 81 H 8.175269 5.219343 -8.881776 0
M  V30 END ATOM
M  V30 BEGIN BOND
M  V30 1 1 2 1
M  V30 2 1 5 1
M  V30 3 1 7 4
M  V30 4 1 9 1
M  V30 5 1 10 9
M  V30 6 1 11 8
M  V30 7 1 13 4
M  V30 8 1 13 6
M  V30 9 1 15 4
M  V30 10 1 16 11
M  V30 11 1 17 14
M  V30 12 1 18 3
M  V30 13 1 19 3
M  V30 14 1 19 8
M  V30 15 1 19 12 CFG=3
M  V30 16 1 19 15
M  V30 17 1 17 20 CFG=1
M  V30 18 1 21 5
M  V30 19 1 21 10
M  V30 20 1 22 12
M  V30 21 1 24 7
M  V30 22 1 24 8
M  V30 23 1 25 17
M  V30 24 1 27 6
M  V30 25 1 27 14
M  V30 26 1 27 23
M  V30 27 1 28 9
M  V30 28 1 28 26
M  V30 29 1 29 11
M  V30 30 1 29 26
M  V30 31 1 30 17
M  V30 32 1 31 23
M  V30 33 1 31 25
M  V30 34 1 32 3
M  V30 35 1 32 7
M  V30 36 1 32 18
M  V30 37 1 33 25
M  V30 38 1 1 34 CFG=3
M  V30 39 1 35 2
M  V30 40 1 36 2
M  V30 41 1 37 2
M  V30 42 1 3 38 CFG=1
M  V30 43 1 4 39 CFG=1
M  V30 44 1 40 5
M  V30 45 1 41 5
M  V30 46 1 42 6
M  V30 47 1 7 43 CFG=1
M  V30 48 1 8 44 CFG=3
M  V30 49 1 45 10
M  V30 50 1 46 10
M  V30 51 1 47 12
M  V30 52 1 48 12
M  V30 53 1 49 13
M  V30 54 1 50 13
M  V30 55 1 51 14
M  V30 56 1 52 14
M  V30 57 1 53 16
M  V30 58 1 54 16
M  V30 59 1 55 16
M  V30 60 1 56 18
M  V30 61 1 57 18
M  V30 62 1 58 21
M  V30 63 1 59 21
M  V30 64 1 60 22
M  V30 65 1 61 22
M  V30 66 1 62 22
M  V30 67 1 63 24
M  V30 68 1 64 24
M  V30 69 1 25 65 CFG=1
M  V30 70 1 66 26
M  V30 71 1 67 26
M  V30 72 1 27 68 CFG=1
M  V30 73 1 69 28
M  V30 74 1 70 28
M  V30 75 1 71 29
M  V30 76 1 72 29
M  V30 77 1 73 30
M  V30 78 1 74 30
M  V30 79 1 75 30
M  V30 80 1 76 31
M  V30 81 1 77 31
M  V30 82 1 32 78 CFG=1
M  V30 83 1 9 79 CFG=3
M  V30 84 1 11 80 CFG=3
M  V30 85 1 81 6
M  V30 END BOND
M  V30 END CTAB
M  END
>  <i_epik_Tot_Q>  (1) 
3

>  <i_epik_Tot_abs_Q>  (1) 
3

>  <i_i_glide_confnum>  (1) 
132

>  <i_i_glide_lignum>  (1) 
135

>  <i_i_glide_posenum>  (1) 
159

>  <i_i_glide_rotatable_bonds>  (1) 
9

>  <i_lp_mmshare_version>  (1) 
72125

>  <i_m_source_file_index>  (1) 
79

>  <i_f3d_flags>  (1) 
0

>  <num_sample>  (1) 
100

>  <b_lp_Chiralities_Consistent>  (1) 
1

>  <r_epik_Charging_Adjusted_Penalty>  (1) 
1.7942086838225126

>  <r_epik_Ionization_Penalty>  (1) 
0.94562311220168549

>  <r_epik_Ionization_Penalty_Charging>  (1) 
0.94562311220168382

>  <r_epik_Ionization_Penalty_Neutral>  (1) 
1.710257484888175e-15

>  <r_epik_State_Penalty>  (1) 
0.84858557162082893

>  <r_glide_ring_energy>  (1) 
0

>  <r_i_docking_score>  (1) 
-5.3522218386150398

>  <r_i_glide_ecoul>  (1) 
-9.7946867967005335

>  <r_i_glide_eff_state_penalty>  (1) 
0.84858557162082893

>  <r_i_glide_einternal>  (1) 
3.7889616247062889

>  <r_i_glide_emodel>  (1) 
-52.663479711010332

>  <r_i_glide_emodel_strain>  (1) 
0.38190898803135553

>  <r_i_glide_energy>  (1) 
-35.760408280208203

>  <r_i_glide_erotb>  (1) 
0.72404097212868179

>  <r_i_glide_esite>  (1) 
-0.14411077534653532

>  <r_i_glide_evdw>  (1) 
-25.965721483507668

>  <r_i_glide_gscore>  (1) 
-6.2008074102358686

>  <r_i_glide_gscore_strain>  (1) 
0

>  <r_i_glide_hbond>  (1) 
-0.15628026691288605

>  <r_i_glide_ligand_efficiency>  (1) 
-0.16218854056409213

>  <r_i_glide_ligand_efficiency_ln>  (1) 
-1.1903064245864361

>  <r_i_glide_ligand_efficiency_sa>  (1) 
-0.5202253117912462

>  <r_i_glide_lipo>  (1) 
-2.50722684191622

>  <r_i_glide_metal>  (1) 
-0

>  <r_i_glide_rewards>  (1) 
-1.3497414045084457

>  <r_lp_Energy>  (1) 
79.635677999999999

>  <s_epik_Chemistry_Notes>  (1) 
This compound contains an acetal/aminal-like group ( X-CH(R)-Y where X, Y are N, S, or O) that may be acid/base labile, releasing an aldehyde.

>  <s_epik_cmdline>  (1) 
J2VwaWtfcHl0aG9uJywgJy1waHQnLCAnMS4wJywgJy1waCcsICc3LjQnLCAnLXRuJywgJzgnLCAnLW1hJywgJzUwMCcsICctaW1hZScsICc8aW5maWxlLm1hZT4nLCAnLW9tYWUnLCAnPG91dGZpbGUubWFlPic=

>  <s_epik_input>  (1) 
W0NIM11bQ0BASF0xW0NIMl1bQ0gyXVtDSDJdTjFbQ0gyXVtDSDJdW0NIMl1OKFtDSDNdKVtDQEBIXTJbQ0gyXVtDQEBIXShbQ0BASF0oW0NIMl0zKVtDQEBIXTNbQ0BAXTI0W0NIMl1bQ0gzXSlbQ0BASF0oTzQpW0NIMl1bTkhdW0NASF0oW0NIMl1bQ0BdNShGKVtDSDNdKU9bQ0gyXVtDQEhdNUY=

>  <s_glide_docking_method>  (1) 
confgen

>  <s_i_glide_gridfile>  (1) 
gpcr_drd2_6luq_protein_autoprepared_prepared

>  <s_lp_Force_Field>  (1) 
S-OPLS

>  <s_lp_Variant>  (1) 
DiffSBDD_78-7

>  <s_m_source_file>  (1) 
generated_generic_title2_ligand_DiffSBDD_2026-06-23_prepared.sdf

>  <GenAI_Model>  (1) 
DiffSBDD

>  <Protein>  (1) 
generic_title2

$$$$
DiffSBDD_22
     RDKit          3D

  0  0  0  0  0  0  0  0  0  0999 V3000
M  V30 BEGIN CTAB
M  V30 COUNTS 28 29 0 0 1
M  V30 BEGIN ATOM
M  V30 1 C 9.719126 6.861605 -8.554967 0 CFG=1
M  V30 2 N 9.775413 8.018184 -9.433210 0
M  V30 3 C 11.881544 7.826472 -10.692996 0
M  V30 4 C 12.175405 7.129654 -3.416903 0
M  V30 5 C 9.817228 7.000011 -7.054614 0 CFG=2
M  V30 6 C 11.375322 6.956653 -4.515985 0
M  V30 7 C 10.356175 7.678857 -10.724242 0
M  V30 8 C 10.174447 8.315975 -6.395181 0
M  V30 9 C 11.059149 8.196917 -5.185104 0
M  V30 10 O 8.690741 5.990227 -8.966083 0
M  V30 11 C 10.894989 6.271913 -7.829321 0
M  V30 12 S 12.575406 8.790212 -3.185037 0
M  V30 13 C 11.658173 9.273024 -4.572762 0
M  V30 14 H 8.811587 8.314029 -9.585028 0
M  V30 15 H 12.305941 7.590085 -11.667846 0
M  V30 16 H 12.175911 8.838840 -10.417137 0
M  V30 17 H 12.349398 7.162908 -9.975612 0
M  V30 18 H 12.550362 6.378830 -2.736535 0
M  V30 19 H 9.160026 6.369712 -6.457900 0
M  V30 20 H 10.997293 6.003846 -4.854563 0
M  V30 21 H 10.056569 6.678836 -11.043393 0
M  V30 22 H 9.949872 8.369844 -11.463110 0
M  V30 23 H 10.646807 8.973243 -7.126454 0
M  V30 24 H 9.233842 8.790475 -6.120237 0
M  V30 25 H 7.916795 6.532853 -9.141693 0
M  V30 26 H 10.944853 5.190246 -7.730396 0
M  V30 27 H 11.847516 6.790192 -7.868614 0
M  V30 28 H 11.600818 10.315374 -4.850043 0
M  V30 END ATOM
M  V30 BEGIN BOND
M  V30 1 1 2 1
M  V30 2 1 5 1
M  V30 3 2 6 4
M  V30 4 1 7 2
M  V30 5 1 7 3
M  V30 6 1 8 5
M  V30 7 1 9 6
M  V30 8 1 9 8
M  V30 9 1 1 10 CFG=1
M  V30 10 1 11 1
M  V30 11 1 11 5
M  V30 12 1 12 4
M  V30 13 2 13 9
M  V30 14 1 13 12
M  V30 15 1 14 2
M  V30 16 1 15 3
M  V30 17 1 16 3
M  V30 18 1 17 3
M  V30 19 1 18 4
M  V30 20 1 5 19 CFG=1
M  V30 21 1 20 6
M  V30 22 1 21 7
M  V30 23 1 22 7
M  V30 24 1 23 8
M  V30 25 1 24 8
M  V30 26 1 25 10
M  V30 27 1 26 11
M  V30 28 1 27 11
M  V30 29 1 28 13
M  V30 END BOND
M  V30 END CTAB
M  END
>  <i_epik_Tot_Q>  (1) 
0

>  <i_epik_Tot_abs_Q>  (1) 
0

>  <i_i_glide_confnum>  (1) 
19

>  <i_i_glide_lignum>  (1) 
39

>  <i_i_glide_posenum>  (1) 
232

>  <i_i_glide_rotatable_bonds>  (1) 
5

>  <i_lp_mmshare_version>  (1) 
72125

>  <i_m_source_file_index>  (1) 
23

>  <i_f3d_flags>  (1) 
0

>  <num_sample>  (1) 
100

>  <b_lp_Chiralities_Consistent>  (1) 
1

>  <r_epik_Charging_Adjusted_Penalty>  (1) 
0.22588015367331185

>  <r_epik_Ionization_Penalty>  (1) 
0.22588404023765496

>  <r_epik_Ionization_Penalty_Charging>  (1) 
0

>  <r_epik_Ionization_Penalty_Neutral>  (1) 
0.22588404023765496

>  <r_epik_State_Penalty>  (1) 
0.22588015367331185

>  <r_glide_ring_energy>  (1) 
0

>  <r_i_docking_score>  (1) 
-5.3345083269204494

>  <r_i_glide_ecoul>  (1) 
-7.1484860952209752

>  <r_i_glide_eff_state_penalty>  (1) 
0.22588015367331185

>  <r_i_glide_einternal>  (1) 
5.4571004308099065

>  <r_i_glide_emodel>  (1) 
-37.994435060852624

>  <r_i_glide_emodel_strain>  (1) 
0.52879023432590699

>  <r_i_glide_energy>  (1) 
-29.953338964247123

>  <r_i_glide_erotb>  (1) 
1.2530290316507966

>  <r_i_glide_esite>  (1) 
-0.089035320240699808

>  <r_i_glide_evdw>  (1) 
-22.804852869026149

>  <r_i_glide_gscore>  (1) 
-5.5603884805937609

>  <r_i_glide_gscore_strain>  (1) 
0

>  <r_i_glide_hbond>  (1) 
-0.29638823341517723

>  <r_i_glide_ligand_efficiency>  (1) 
-0.41034679437849608

>  <r_i_glide_ligand_efficiency_ln>  (1) 
-1.4963770286820981

>  <r_i_glide_ligand_efficiency_sa>  (1) 
-0.96486265161717522

>  <r_i_glide_lipo>  (1) 
-1.8972516488483882

>  <r_i_glide_metal>  (1) 
-0

>  <r_i_glide_rewards>  (1) 
-2.3182267520058377

>  <r_lp_Energy>  (1) 
-2.963994

>  <s_epik_cmdline>  (1) 
J2VwaWtfcHl0aG9uJywgJy1waHQnLCAnMS4wJywgJy1waCcsICc3LjQnLCAnLXRuJywgJzgnLCAnLW1hJywgJzUwMCcsICctaW1hZScsICc8aW5maWxlLm1hZT4nLCAnLW9tYWUnLCAnPG91dGZpbGUubWFlPic=

>  <s_epik_input>  (1) 
W0NIM11bQ0gyXVtOSF1bQ0BdMShbT0hdKVtDQEBIXShbQ0gyXTEpW0NIMl1jMltjSF1bY0hdc1tjSF0y

>  <s_glide_docking_method>  (1) 
confgen

>  <s_i_glide_gridfile>  (1) 
gpcr_drd2_6luq_protein_autoprepared_prepared

>  <s_lp_Force_Field>  (1) 
S-OPLS

>  <s_lp_Variant>  (1) 
DiffSBDD_22-1

>  <s_m_source_file>  (1) 
generated_generic_title2_ligand_DiffSBDD_2026-06-23_prepared.sdf

>  <GenAI_Model>  (1) 
DiffSBDD

>  <Protein>  (1) 
generic_title2

$$$$
DiffSBDD_65
     RDKit          3D

  0  0  0  0  0  0  0  0  0  0999 V3000
M  V30 BEGIN CTAB
M  V30 COUNTS 66 68 0 0 1
M  V30 BEGIN ATOM
M  V30 1 C 9.655374 7.187721 -8.340031 0 CFG=2
M  V30 2 N 9.298819 4.944080 -14.672259 0
M  V30 3 C 11.159986 7.418391 -8.009193 0
M  V30 4 C 5.949273 6.334332 -17.576403 0
M  V30 5 C 7.314335 7.788561 -20.957010 0
M  V30 6 C 6.292675 6.177393 -20.023470 0 CFG=1
M  V30 7 O 8.975403 6.837781 -7.144823 0
M  V30 8 O 9.480557 4.020035 -16.745960 0
M  V30 9 O 7.218428 5.990236 -17.119922 0
M  V30 10 O 8.175414 5.590220 -9.434237 0
M  V30 11 C 9.481407 6.118560 -9.455265 0 CFG=1
M  V30 12 C 6.132614 4.978395 -20.979948 0
M  V30 13 C 11.478091 8.669800 -7.168648 0
M  V30 14 O 10.119539 6.696642 -19.982902 0
M  V30 15 C 4.757404 7.819169 -21.529389 0
M  V30 16 C 8.360240 5.561246 -13.964090 0
M  V30 17 F 11.848127 7.573396 -9.141674 0
M  V30 18 C 10.913949 6.788437 -12.601480 0
M  V30 19 C 7.287772 5.023898 -16.082929 0 CFG=2
M  V30 20 C 9.791984 6.034934 -11.877713 0 CFG=2
M  V30 21 C 8.474815 6.095651 -12.669573 0
M  V30 22 N 7.425456 6.721239 -12.067923 0
M  V30 23 O 9.747191 6.773766 -10.656041 0
M  V30 24 C 4.692424 4.467601 -21.163716 0
M  V30 25 F 11.656323 6.356794 -7.376217 0
M  V30 26 C 6.107002 6.264364 -14.095308 0
M  V30 27 C 5.861746 7.595667 -20.503681 0 CFG=2
M  V30 28 C 7.222178 5.644519 -14.661851 0
M  V30 29 C 8.959018 5.898796 -20.091219 0
M  V30 30 O 10.719739 8.697514 -5.979251 0
M  V30 31 C 8.830974 4.596715 -15.875768 0
M  V30 32 O 5.656080 5.742218 -18.805046 0
M  V30 33 C 6.254238 6.790297 -12.781903 0
M  V30 34 C 7.727181 6.773803 -19.888532 0 CFG=1
M  V30 35 H 9.212850 8.117616 -8.701121 0
M  V30 36 H 10.238181 4.780453 -14.328702 0
M  V30 37 H 5.181507 6.006264 -16.875372 0
M  V30 38 H 5.877023 7.419413 -17.635806 0
M  V30 39 H 7.709119 8.793618 -20.809042 0
M  V30 40 H 7.499838 7.439756 -21.973955 0
M  V30 41 H 8.039344 6.790290 -7.338643 0
M  V30 42 H 7.577852 6.326275 -9.585059 0
M  V30 43 H 10.166990 5.284601 -9.305053 0
M  V30 44 H 6.540996 5.221684 -21.960860 0
M  V30 45 H 6.734893 4.146274 -20.613749 0
M  V30 46 H 11.283580 9.571865 -7.743774 0
M  V30 47 H 12.538193 8.707673 -6.917743 0
M  V30 48 H 10.878305 6.136189 -20.042919 0
M  V30 49 H 4.905695 7.213621 -22.423077 0
M  V30 50 H 3.775746 7.590123 -21.121367 0
M  V30 51 H 4.732824 8.860337 -21.850265 0
M  V30 52 H 11.187239 6.353214 -13.559568 0
M  V30 53 H 10.575394 7.805615 -12.785016 0
M  V30 54 H 11.818495 6.830658 -11.994947 0
M  V30 55 H 6.647278 4.154113 -16.214264 0
M  V30 56 H 10.083813 4.997700 -11.705833 0
M  V30 57 H 4.675944 3.617870 -21.846366 0
M  V30 58 H 4.266389 4.131953 -20.219284 0
M  V30 59 H 4.030180 5.225368 -21.575361 0
M  V30 60 H 5.174585 6.344468 -14.629894 0
M  V30 61 H 5.687772 8.245824 -19.645928 0
M  V30 62 H 8.998508 5.114689 -19.334388 0
M  V30 63 H 8.950713 5.411599 -21.066468 0
M  V30 64 H 9.983824 8.105391 -6.109519 0
M  V30 65 H 5.424783 7.281740 -12.294653 0
M  V30 66 H 7.845036 7.340322 -18.968516 0
M  V30 END ATOM
M  V30 BEGIN BOND
M  V30 1 1 3 1
M  V30 2 1 7 1
M  V30 3 1 9 4
M  V30 4 1 11 1
M  V30 5 1 11 10
M  V30 6 1 12 6
M  V30 7 1 13 3
M  V30 8 1 16 2
M  V30 9 1 17 3
M  V30 10 1 19 9
M  V30 11 1 20 18
M  V30 12 1 21 16
M  V30 13 1 21 20
M  V30 14 2 22 21
M  V30 15 1 23 11
M  V30 16 1 23 20
M  V30 17 1 24 12
M  V30 18 1 25 3
M  V30 19 1 27 5
M  V30 20 1 27 6
M  V30 21 1 27 15
M  V30 22 2 28 16
M  V30 23 1 28 19
M  V30 24 1 28 26
M  V30 25 1 29 14
M  V30 26 1 30 13
M  V30 27 1 31 2
M  V30 28 2 31 8
M  V30 29 1 31 19
M  V30 30 1 32 4
M  V30 31 1 6 32 CFG=1
M  V30 32 1 33 22
M  V30 33 2 33 26
M  V30 34 1 34 5
M  V30 35 1 34 6
M  V30 36 1 34 29
M  V30 37 1 1 35 CFG=3
M  V30 38 1 36 2
M  V30 39 1 37 4
M  V30 40 1 38 4
M  V30 41 1 39 5
M  V30 42 1 40 5
M  V30 43 1 41 7
M  V30 44 1 42 10
M  V30 45 1 11 43 CFG=1
M  V30 46 1 44 12
M  V30 47 1 45 12
M  V30 48 1 46 13
M  V30 49 1 47 13
M  V30 50 1 48 14
M  V30 51 1 49 15
M  V30 52 1 50 15
M  V30 53 1 51 15
M  V30 54 1 52 18
M  V30 55 1 53 18
M  V30 56 1 54 18
M  V30 57 1 19 55 CFG=3
M  V30 58 1 20 56 CFG=1
M  V30 59 1 57 24
M  V30 60 1 58 24
M  V30 61 1 59 24
M  V30 62 1 60 26
M  V30 63 1 27 61 CFG=1
M  V30 64 1 62 29
M  V30 65 1 63 29
M  V30 66 1 64 30
M  V30 67 1 65 33
M  V30 68 1 34 66 CFG=1
M  V30 END BOND
M  V30 END CTAB
M  END
>  <i_epik_Tot_Q>  (1) 
0

>  <i_epik_Tot_abs_Q>  (1) 
0

>  <i_i_glide_confnum>  (1) 
2251

>  <i_i_glide_lignum>  (1) 
106

>  <i_i_glide_posenum>  (1) 
121

>  <i_i_glide_rotatable_bonds>  (1) 
16

>  <i_lp_mmshare_version>  (1) 
72125

>  <i_m_source_file_index>  (1) 
66

>  <i_f3d_flags>  (1) 
0

>  <num_sample>  (1) 
100

>  <b_lp_Chiralities_Consistent>  (1) 
1

>  <r_epik_Charging_Adjusted_Penalty>  (1) 
0

>  <r_epik_Ionization_Penalty>  (1) 
0.020984920231991385

>  <r_epik_Ionization_Penalty_Charging>  (1) 
0

>  <r_epik_Ionization_Penalty_Neutral>  (1) 
0.020984920231991385

>  <r_epik_State_Penalty>  (1) 
-0

>  <r_glide_ring_energy>  (1) 
0

>  <r_i_docking_score>  (1) 
-5.330467686114666

>  <r_i_glide_ecoul>  (1) 
-7.9937099223606696

>  <r_i_glide_eff_state_penalty>  (1) 
-0

>  <r_i_glide_einternal>  (1) 
17.082782292098088

>  <r_i_glide_emodel>  (1) 
-43.00218576826493

>  <r_i_glide_emodel_strain>  (1) 
2.3674122568043714

>  <r_i_glide_energy>  (1) 
-40.83362890490087

>  <r_i_glide_erotb>  (1) 
0.93044466926125857

>  <r_i_glide_esite>  (1) 
-0.087130524992996658

>  <r_i_glide_evdw>  (1) 
-32.839918982540198

>  <r_i_glide_gscore>  (1) 
-5.330467686114666

>  <r_i_glide_gscore_strain>  (1) 
0

>  <r_i_glide_hbond>  (1) 
-0.46404197583827689

>  <r_i_glide_ligand_efficiency>  (1) 
-0.15677846135631371

>  <r_i_glide_ligand_efficiency_ln>  (1) 
-1.1776498264169297

>  <r_i_glide_ligand_efficiency_sa>  (1) 
-0.50790135359603983

>  <r_i_glide_lipo>  (1) 
-1.7473518360041693

>  <r_i_glide_metal>  (1) 
-0

>  <r_i_glide_rewards>  (1) 
-1.1213355810593713

>  <r_lp_Energy>  (1) 
35.882733000000002

>  <r_lp_tautomer_probability>  (1) 
1

>  <s_epik_Chemistry_Notes>  (1) 
This compound contains an acetal/aminal-like group ( X-CH(R)-Y where X, Y are N, S, or O) that may be acid/base labile, releasing an aldehyde.

>  <s_epik_cmdline>  (1) 
J2VwaWtfcHl0aG9uJywgJy1waHQnLCAnMS4wJywgJy1waCcsICc3LjQnLCAnLXRuJywgJzgnLCAnLW1hJywgJzUwMCcsICctaW1hZScsICc8aW5maWxlLm1hZT4nLCAnLW9tYWUnLCAnPG91dGZpbGUubWFlPic=

>  <s_epik_input>  (1) 
W09IXVtDSDJdQyhGKShGKVtDQEhdKFtPSF0pW0NAQEhdKFtPSF0pT1tDQEhdKFtDSDNdKWMxbltjSF1bY0hdYyhjMTIpW0NASF0oQyg9TylbTkhdMilPW0NIMl1PW0NAQF0zKFtDSDJdW0NIM10pW0NASF0oW0NIM10pW0NIMl1bQ0BASF0zW0NIMl1bT0hd

>  <s_glide_docking_method>  (1) 
confgen

>  <s_i_glide_gridfile>  (1) 
gpcr_drd2_6luq_protein_autoprepared_prepared

>  <s_lp_Force_Field>  (1) 
S-OPLS

>  <s_lp_Variant>  (1) 
DiffSBDD_65-1

>  <s_m_source_file>  (1) 
generated_generic_title2_ligand_DiffSBDD_2026-06-23_prepared.sdf

>  <GenAI_Model>  (1) 
DiffSBDD

>  <Protein>  (1) 
generic_title2

$$$$
DiffSBDD_31
     RDKit          3D

  0  0  0  0  0  0  0  0  0  0999 V3000
M  V30 BEGIN CTAB
M  V30 COUNTS 103 109 0 0 1
M  V30 BEGIN ATOM
M  V30 1 C 9.573068 5.415499 -9.737846 0
M  V30 2 C 6.352216 5.663056 -15.640789 0
M  V30 3 C 13.866072 5.880460 -18.995298 0 CFG=2
M  V30 4 C 10.076720 6.333655 -12.744104 0
M  V30 5 O 8.700134 5.205557 -15.908178 0
M  V30 6 C 12.131518 9.643042 -5.497747 0
M  V30 7 C 8.383311 4.914518 -10.501625 0
M  V30 8 C 10.058606 2.081740 -18.923461 0
M  V30 9 C 10.341539 6.647933 -10.324137 0 CFG=1
M  V30 10 C 8.734764 4.242909 -11.813060 0 CFG=2
M  V30 11 C 10.811778 8.928879 -5.325779 0 CFG=1
M  V30 12 C 9.511558 4.942871 -12.887920 0 CFG=1
M  V30 13 C 6.628044 6.471350 -14.352112 0
M  V30 14 C 5.762868 5.086888 -12.270178 0 CFG=1
M  V30 15 C 12.822564 9.409285 -6.807980 0
M  V30 16 C 8.046697 4.661580 -13.099522 0 CFG=2
M  V30 17 C 7.827859 5.731114 -18.896895 0
M  V30 18 C 9.620548 8.687337 -6.297223 0 CFG=2
M  V30 19 C 8.017693 3.350898 -18.156334 0
M  V30 20 C 10.295635 2.430704 -20.399033 0
M  V30 21 C 13.389985 6.188047 -17.565326 0
M  V30 22 O 11.520726 5.181769 -16.450426 0
M  V30 23 O 10.905122 6.546087 -11.629072 0
M  V30 24 N 9.659468 7.904158 -7.567320 0 CFG=2 CHG=1
M  V30 25 C 6.949110 5.708480 -13.034662 0 CFG=1
M  V30 26 C 12.134282 5.350090 -17.498736 0
M  V30 27 C 7.361219 4.706958 -17.853932 0 CFG=1
M  V30 28 C 10.577717 6.907366 -7.026712 0
M  V30 29 C 9.984199 3.926978 -20.533037 0
M  V30 30 C 9.567395 3.375639 -18.246932 0 CFG=2
M  V30 31 C 9.972232 8.649033 -8.819487 0
M  V30 32 C 11.694072 4.722022 -18.820577 0 CFG=1
M  V30 33 C 5.035216 6.090639 -11.360128 0
M  V30 34 C 9.628445 7.968669 -10.157562 0
M  V30 35 C 10.453389 7.539651 -5.678183 0 CFG=1
M  V30 36 O 11.990095 6.727479 -20.242625 0
M  V30 37 C 9.359915 5.869453 -18.954327 0
M  V30 38 O 4.967605 4.390389 -13.184622 0
M  V30 39 C 10.152080 4.532676 -19.121337 0 CFG=1
M  V30 40 C 7.583326 5.191590 -16.414049 0
M  V30 41 C 14.756706 6.978924 -19.599131 0
M  V30 42 C 13.052517 9.420249 -4.282429 0
M  V30 43 C 12.591234 5.521261 -19.809219 0 CFG=1
M  V30 44 H 10.175421 4.545850 -9.525120 0
M  V30 45 H 9.136057 5.688565 -8.788178 0
M  V30 46 H 5.760198 6.274201 -16.322558 0
M  V30 47 H 5.757167 4.790194 -15.420070 0
M  V30 48 H 14.470653 4.973623 -18.940947 0
M  V30 49 H 10.758767 6.417690 -13.585085 0
M  V30 50 H 9.318440 7.111246 -12.788980 0
M  V30 51 H 11.893831 10.708049 -5.489359 0
M  V30 52 H 7.824156 4.200223 -9.900845 0
M  V30 53 H 7.728881 5.762250 -10.600013 0
M  V30 54 H 9.350999 1.258764 -18.811494 0
M  V30 55 H 10.993036 1.748852 -18.468732 0
M  V30 56 H 11.247599 6.790621 -9.735040 0
M  V30 57 H 8.978784 3.188072 -11.703099 0
M  V30 58 H 10.575414 9.189293 -4.309042 0
M  V30 59 H 10.175099 4.292009 -13.440323 0
M  V30 60 H 7.435185 7.178214 -14.553501 0
M  V30 61 H 5.760227 7.103636 -14.162910 0
M  V30 62 H 6.100200 4.296548 -11.601494 0
M  V30 63 H 12.973393 8.390290 -7.142796 0
M  V30 64 H 12.175395 9.888604 -7.533418 0
M  V30 65 H 13.803384 9.884092 -6.784904 0
M  V30 66 H 7.800451 3.835825 -13.765505 0
M  V30 67 H 7.449488 5.442103 -19.877497 0
M  V30 68 H 7.382246 6.704584 -18.690073 0
M  V30 69 H 8.585388 8.787468 -5.984920 0
M  V30 70 H 7.605333 2.984060 -19.096404 0
M  V30 71 H 7.713294 2.622210 -17.403578 0
M  V30 72 H 9.667657 1.835600 -21.062385 0
M  V30 73 H 11.333633 2.230937 -20.666119 0
M  V30 74 H 14.114280 5.901212 -16.802683 0
M  V30 75 H 13.127012 7.239109 -17.440887 0
M  V30 76 H 7.311131 6.521563 -12.414425 0
M  V30 77 H 6.285103 4.586363 -17.972367 0
M  V30 78 H 10.193493 5.889815 -7.024174 0
M  V30 79 H 11.568979 6.914779 -7.467363 0
M  V30 80 H 8.953489 4.032840 -20.872551 0
M  V30 81 H 10.597924 4.411181 -21.291493 0
M  V30 82 H 9.954820 3.408679 -17.231024 0
M  V30 83 H 11.013787 8.936522 -8.863740 0
M  V30 84 H 9.375213 9.544786 -8.809713 0
M  V30 85 H 12.126646 3.723876 -18.781971 0
M  V30 86 H 5.678824 6.389748 -10.541049 0
M  V30 87 H 4.762263 7.008403 -11.877706 0
M  V30 88 H 4.175714 5.658586 -10.859497 0
M  V30 89 H 9.979597 8.635531 -10.941837 0
M  V30 90 H 8.575423 7.857402 -10.384963 0
M  V30 91 H 9.982644 6.922389 -4.916980 0
M  V30 92 H 12.617403 7.209130 -20.760471 0
M  V30 93 H 9.683097 6.384565 -18.052870 0
M  V30 94 H 9.590563 6.549522 -19.772773 0
M  V30 95 H 4.643894 5.013161 -13.816703 0
M  V30 96 H 14.254519 7.946953 -19.624025 0
M  V30 97 H 15.667634 7.103074 -19.012305 0
M  V30 98 H 15.054132 6.726439 -20.616441 0
M  V30 99 H 13.206923 8.369047 -4.046535 0
M  V30 100 H 14.028517 9.883373 -4.433911 0
M  V30 101 H 12.625538 9.865405 -3.383466 0
M  V30 102 H 12.848533 4.922543 -20.682634 0
M  V30 103 H 8.740779 7.491260 -7.686934 0
M  V30 END ATOM
M  V30 BEGIN BOND
M  V30 1 1 7 1
M  V30 2 1 9 1
M  V30 3 1 10 7
M  V30 4 1 11 6
M  V30 5 1 12 4
M  V30 6 1 12 10
M  V30 7 1 13 2
M  V30 8 1 15 6
M  V30 9 1 16 10
M  V30 10 1 16 12
M  V30 11 1 18 11
M  V30 12 1 20 8
M  V30 13 1 21 3
M  V30 14 1 23 4
M  V30 15 1 23 9
M  V30 16 1 24 18
M  V30 17 1 25 13
M  V30 18 1 25 14
M  V30 19 1 25 16
M  V30 20 1 26 21
M  V30 21 2 26 22
M  V30 22 1 27 17
M  V30 23 1 27 19
M  V30 24 1 28 24
M  V30 25 1 29 20
M  V30 26 1 30 8
M  V30 27 1 30 19
M  V30 28 1 31 24
M  V30 29 1 32 26
M  V30 30 1 33 14
M  V30 31 1 34 9
M  V30 32 1 34 31
M  V30 33 1 35 11
M  V30 34 1 35 18
M  V30 35 1 35 28
M  V30 36 1 37 17
M  V30 37 1 38 14
M  V30 38 1 39 29 CFG=3
M  V30 39 1 39 30
M  V30 40 1 39 32
M  V30 41 1 39 37
M  V30 42 1 40 2
M  V30 43 2 40 5
M  V30 44 1 40 27
M  V30 45 1 41 3
M  V30 46 1 42 6
M  V30 47 1 43 3
M  V30 48 1 43 32
M  V30 49 1 43 36
M  V30 50 1 44 1
M  V30 51 1 45 1
M  V30 52 1 46 2
M  V30 53 1 47 2
M  V30 54 1 3 48 CFG=1
M  V30 55 1 49 4
M  V30 56 1 50 4
M  V30 57 1 51 6
M  V30 58 1 52 7
M  V30 59 1 53 7
M  V30 60 1 54 8
M  V30 61 1 55 8
M  V30 62 1 9 56 CFG=1
M  V30 63 1 10 57 CFG=1
M  V30 64 1 11 58 CFG=1
M  V30 65 1 12 59 CFG=3
M  V30 66 1 60 13
M  V30 67 1 61 13
M  V30 68 1 14 62 CFG=1
M  V30 69 1 63 15
M  V30 70 1 64 15
M  V30 71 1 65 15
M  V30 72 1 16 66 CFG=3
M  V30 73 1 67 17
M  V30 74 1 68 17
M  V30 75 1 18 69 CFG=1
M  V30 76 1 70 19
M  V30 77 1 71 19
M  V30 78 1 72 20
M  V30 79 1 73 20
M  V30 80 1 74 21
M  V30 81 1 75 21
M  V30 82 1 25 76 CFG=1
M  V30 83 1 27 77 CFG=1
M  V30 84 1 78 28
M  V30 85 1 79 28
M  V30 86 1 80 29
M  V30 87 1 81 29
M  V30 88 1 30 82 CFG=1
M  V30 89 1 83 31
M  V30 90 1 84 31
M  V30 91 1 32 85 CFG=1
M  V30 92 1 86 33
M  V30 93 1 87 33
M  V30 94 1 88 33
M  V30 95 1 89 34
M  V30 96 1 90 34
M  V30 97 1 35 91 CFG=1
M  V30 98 1 92 36
M  V30 99 1 93 37
M  V30 100 1 94 37
M  V30 101 1 95 38
M  V30 102 1 96 41
M  V30 103 1 97 41
M  V30 104 1 98 41
M  V30 105 1 99 42
M  V30 106 1 100 42
M  V30 107 1 101 42
M  V30 108 1 43 102 CFG=3
M  V30 109 1 24 103 CFG=3
M  V30 END BOND
M  V30 END CTAB
M  END
>  <i_epik_Tot_Q>  (1) 
1

>  <i_epik_Tot_abs_Q>  (1) 
1

>  <i_i_glide_confnum>  (1) 
2232

>  <i_i_glide_lignum>  (1) 
52

>  <i_i_glide_posenum>  (1) 
84

>  <i_i_glide_rotatable_bonds>  (1) 
13

>  <i_lp_mmshare_version>  (1) 
72125

>  <i_m_source_file_index>  (1) 
32

>  <i_f3d_flags>  (1) 
0

>  <num_sample>  (1) 
100

>  <b_lp_Chiralities_Consistent>  (1) 
1

>  <r_epik_Charging_Adjusted_Penalty>  (1) 
0.00082013732971917403

>  <r_epik_Ionization_Penalty>  (1) 
0.00082046965520535795

>  <r_epik_Ionization_Penalty_Charging>  (1) 
0.00082013732971917403

>  <r_epik_Ionization_Penalty_Neutral>  (1) 
3.3232548618397322e-07

>  <r_epik_State_Penalty>  (1) 
-0

>  <r_glide_ring_energy>  (1) 
1.7158683604837162

>  <r_i_docking_score>  (1) 
-5.3290263999548886

>  <r_i_glide_ecoul>  (1) 
-2.729512957603883

>  <r_i_glide_eff_state_penalty>  (1) 
-0

>  <r_i_glide_einternal>  (1) 
29.406815308905401

>  <r_i_glide_emodel>  (1) 
-13.64377627607811

>  <r_i_glide_emodel_strain>  (1) 
3.1669281516014678

>  <r_i_glide_energy>  (1) 
-21.541624936342991

>  <r_i_glide_erotb>  (1) 
0.32869334503205377

>  <r_i_glide_esite>  (1) 
-0.068055238358841058

>  <r_i_glide_evdw>  (1) 
-18.812111978739107

>  <r_i_glide_gscore>  (1) 
-5.3290263999548886

>  <r_i_glide_gscore_strain>  (1) 
0

>  <r_i_glide_hbond>  (1) 
0

>  <r_i_glide_ligand_efficiency>  (1) 
-0.1239308465105788

>  <r_i_glide_ligand_efficiency_ln>  (1) 
-1.1192611674501338

>  <r_i_glide_ligand_efficiency_sa>  (1) 
-0.43417908728724669

>  <r_i_glide_lipo>  (1) 
-2.5894036666331415

>  <r_i_glide_metal>  (1) 
-0

>  <r_i_glide_rewards>  (1) 
-1.6502282974174225

>  <r_lp_Energy>  (1) 
61.299568000000001

>  <r_lp_tautomer_probability>  (1) 
1

>  <s_epik_cmdline>  (1) 
J2VwaWtfcHl0aG9uJywgJy1waHQnLCAnMS4wJywgJy1waCcsICc3LjQnLCAnLXRuJywgJzgnLCAnLW1hJywgJzUwMCcsICctaW1hZScsICc8aW5maWxlLm1hZT4nLCAnLW9tYWUnLCAnPG91dGZpbGUubWFlPic=

>  <s_epik_input>  (1) 
W0NIM11bQ0hdKFtDSDNdKVtDQEBIXTFbQ0BASF0oW0NAQEhdMTIpW0NIMl1OMltDSDJdW0NIMl1bQ0BASF0oW0NIMl1bQ0gyXTMpT1tDSDJdW0NAQEhdKFtDQEBIXTM0KVtDQEBIXTRbQ0BIXShbQ0BASF0oW0NIM10pW09IXSlbQ0gyXVtDSDJdQyg9TylbQ0BASF0oW0NIMl1bQ0gyXTUpW0NIMl1bQ0BASF0oW0NIMl1bQ0gyXVtDSDJdNilbQ0BdNTZbQ0BASF0oW0NASF03W09IXSlDKD1PKVtDSDJdW0NAQEhdN1tDSDNd

>  <s_glide_docking_method>  (1) 
confgen

>  <s_i_glide_gridfile>  (1) 
gpcr_drd2_6luq_protein_autoprepared_prepared

>  <s_lp_Force_Field>  (1) 
S-OPLS

>  <s_lp_Variant>  (1) 
DiffSBDD_31-1

>  <s_m_source_file>  (1) 
generated_generic_title2_ligand_DiffSBDD_2026-06-23_prepared.sdf

>  <GenAI_Model>  (1) 
DiffSBDD

>  <Protein>  (1) 
generic_title2

$$$$
DiffSBDD_59
     RDKit          3D

  0  0  0  0  0  0  0  0  0  0999 V3000
M  V30 BEGIN CTAB
M  V30 COUNTS 69 72 0 0 1
M  V30 BEGIN ATOM
M  V30 1 C 9.637954 5.226304 -16.956320 0 CFG=2
M  V30 2 C 11.384621 2.987213 -18.816576 0
M  V30 3 C 11.390233 7.787421 -4.830860 0
M  V30 4 P 8.165342 4.433703 -16.145982 0 CFG=2
M  V30 5 C 12.175421 9.016640 -2.928891 0
M  V30 6 O 6.772355 4.445759 -11.422266 0
M  V30 7 C 8.989826 6.082409 -10.648111 0
M  V30 8 C 10.256251 7.323495 -8.987548 0
M  V30 9 C 9.290998 5.640591 -18.397454 0
M  V30 10 C 10.793234 8.538035 -8.535642 0
M  V30 11 C 11.154037 8.699825 -7.183323 0
M  V30 12 C 12.461937 6.348790 -16.253161 0
M  V30 13 N 9.891964 7.189604 -10.341245 0
M  V30 14 C 10.907601 4.344284 -16.805014 0 CFG=1
M  V30 15 O 11.126003 2.055467 -19.575082 0
M  V30 16 C 10.992918 7.636196 -6.259497 0
M  V30 17 O 12.385069 5.258171 -18.394529 0
M  V30 18 C 6.884701 5.739870 -16.008604 0
M  V30 19 C 11.793038 9.015104 -4.275255 0
M  V30 20 C 13.849851 3.507183 -19.237237 0
M  V30 21 O 10.821006 3.155345 -17.584963 0
M  V30 22 C 6.251318 5.462165 -14.637483 0 CFG=2
M  V30 23 C 8.275742 6.258970 -11.994286 0 CFG=1
M  V30 24 C 11.775404 6.790410 -2.811859 0
M  V30 25 O 5.775520 6.666424 -14.061264 0
M  V30 26 C 10.090979 6.256514 -8.077041 0
M  V30 27 C 7.389335 5.040301 -12.303698 0
M  V30 28 C 7.246654 4.622119 -13.777270 0 CFG=2
M  V30 29 C 10.458317 6.413305 -6.730968 0
M  V30 30 N 8.503997 4.455615 -14.489856 0
M  V30 31 O 7.695100 3.153813 -16.742207 0
M  V30 32 N 11.375410 6.659314 -4.083857 0
M  V30 33 N 12.175415 7.899303 -2.174910 0
M  V30 34 C 12.268270 5.025859 -17.007665 0 CFG=1
M  V30 35 C 12.422002 4.077486 -19.198484 0 CFG=1
M  V30 36 N 7.402268 7.445475 -11.985026 0 CHG=1
M  V30 37 H 9.792200 6.135911 -16.385076 0
M  V30 38 H 12.491601 9.928556 -2.446124 0
M  V30 39 H 8.231414 5.990229 -9.867343 0
M  V30 40 H 9.563252 5.154186 -10.657554 0
M  V30 41 H 10.100629 6.203951 -18.859953 0
M  V30 42 H 9.079747 4.773582 -19.023530 0
M  V30 43 H 8.407494 6.278603 -18.419778 0
M  V30 44 H 10.926198 9.357240 -9.226486 0
M  V30 45 H 11.564164 9.640752 -6.858558 0
M  V30 46 H 12.278299 6.227574 -15.185124 0
M  V30 47 H 13.483519 6.709419 -16.374893 0
M  V30 48 H 11.803090 7.130991 -16.628317 0
M  V30 49 H 9.853736 8.013650 -10.919581 0
M  V30 50 H 10.913638 4.011787 -15.770565 0
M  V30 51 H 6.183083 5.722151 -16.842722 0
M  V30 52 H 7.375383 6.709205 -15.984654 0
M  V30 53 H 11.811078 9.922299 -4.854894 0
M  V30 54 H 13.917292 2.670428 -19.933575 0
M  V30 55 H 14.558194 4.266308 -19.568896 0
M  V30 56 H 14.176722 3.149023 -18.261668 0
M  V30 57 H 5.375426 4.833978 -14.785038 0
M  V30 58 H 9.012266 6.380839 -12.787302 0
M  V30 59 H 11.768779 5.886558 -2.221366 0
M  V30 60 H 5.066142 6.995270 -14.597035 0
M  V30 61 H 9.686545 5.311695 -8.405990 0
M  V30 62 H 6.799636 3.627236 -13.745141 0
M  V30 63 H 10.328009 5.590228 -6.050528 0
M  V30 64 H 9.176036 5.167833 -14.218077 0
M  V30 65 H 13.054744 4.346052 -16.677345 0
M  V30 66 H 12.173137 4.398109 -20.210285 0
M  V30 67 H 6.666824 7.311920 -12.677448 0
M  V30 68 H 6.999305 7.544260 -11.042149 0
M  V30 69 H 7.930478 8.278858 -12.182531 0
M  V30 END ATOM
M  V30 BEGIN BOND
M  V30 1 1 4 1
M  V30 2 1 9 1
M  V30 3 1 10 8
M  V30 4 2 11 10
M  V30 5 1 13 7
M  V30 6 1 13 8
M  V30 7 1 14 1
M  V30 8 2 15 2
M  V30 9 1 16 3
M  V30 10 1 16 11
M  V30 11 1 18 4
M  V30 12 1 19 3
M  V30 13 2 19 5
M  V30 14 1 21 2
M  V30 15 1 21 14
M  V30 16 1 22 18
M  V30 17 1 23 7
M  V30 18 1 25 22
M  V30 19 2 26 8
M  V30 20 2 27 6
M  V30 21 1 27 23
M  V30 22 1 28 22
M  V30 23 1 28 27
M  V30 24 2 29 16
M  V30 25 1 29 26
M  V30 26 1 4 30 CFG=1
M  V30 27 1 30 28
M  V30 28 2 31 4
M  V30 29 2 32 3
M  V30 30 1 32 24
M  V30 31 1 33 5
M  V30 32 2 33 24
M  V30 33 1 34 12
M  V30 34 1 34 14
M  V30 35 1 34 17
M  V30 36 1 35 2
M  V30 37 1 35 17
M  V30 38 1 35 20
M  V30 39 1 36 23
M  V30 40 1 1 37 CFG=1
M  V30 41 1 38 5
M  V30 42 1 39 7
M  V30 43 1 40 7
M  V30 44 1 41 9
M  V30 45 1 42 9
M  V30 46 1 43 9
M  V30 47 1 44 10
M  V30 48 1 45 11
M  V30 49 1 46 12
M  V30 50 1 47 12
M  V30 51 1 48 12
M  V30 52 1 49 13
M  V30 53 1 14 50 CFG=1
M  V30 54 1 51 18
M  V30 55 1 52 18
M  V30 56 1 53 19
M  V30 57 1 54 20
M  V30 58 1 55 20
M  V30 59 1 56 20
M  V30 60 1 22 57 CFG=3
M  V30 61 1 23 58 CFG=3
M  V30 62 1 59 24
M  V30 63 1 60 25
M  V30 64 1 61 26
M  V30 65 1 28 62 CFG=1
M  V30 66 1 63 29
M  V30 67 1 64 30
M  V30 68 1 34 65 CFG=1
M  V30 69 1 35 66 CFG=3
M  V30 70 1 67 36
M  V30 71 1 68 36
M  V30 72 1 69 36
M  V30 END BOND
M  V30 END CTAB
M  END
>  <i_epik_Tot_Q>  (1) 
1

>  <i_epik_Tot_abs_Q>  (1) 
1

>  <i_i_glide_confnum>  (1) 
657

>  <i_i_glide_lignum>  (1) 
94

>  <i_i_glide_posenum>  (1) 
134

>  <i_i_glide_rotatable_bonds>  (1) 
9

>  <i_lp_mmshare_version>  (1) 
72125

>  <i_m_source_file_index>  (1) 
60

>  <i_f3d_flags>  (1) 
0

>  <num_sample>  (1) 
100

>  <b_lp_Chiralities_Consistent>  (1) 
1

>  <r_epik_Charging_Adjusted_Penalty>  (1) 
1.6146942296060567

>  <r_epik_Ionization_Penalty>  (1) 
0.80735470395218212

>  <r_epik_Ionization_Penalty_Charging>  (1) 
0.80734711480302834

>  <r_epik_Ionization_Penalty_Neutral>  (1) 
7.5891491537376816e-06

>  <r_epik_State_Penalty>  (1) 
0.80734711480302834

>  <r_glide_ring_energy>  (1) 
0.3356859326826036

>  <r_i_docking_score>  (1) 
-5.3289797966440613

>  <r_i_glide_ecoul>  (1) 
-6.3052370469258863

>  <r_i_glide_eff_state_penalty>  (1) 
0.80734711480302834

>  <r_i_glide_einternal>  (1) 
32.796786828113547

>  <r_i_glide_emodel>  (1) 
-55.390074099650654

>  <r_i_glide_emodel_strain>  (1) 
1.2541243674262503

>  <r_i_glide_energy>  (1) 
-51.508236608061651

>  <r_i_glide_erotb>  (1) 
0.61110351075041747

>  <r_i_glide_esite>  (1) 
-0.18130981468362353

>  <r_i_glide_evdw>  (1) 
-45.202999561135762

>  <r_i_glide_gscore>  (1) 
-6.1363269114470897

>  <r_i_glide_gscore_strain>  (1) 
0

>  <r_i_glide_hbond>  (1) 
-0.20000000000000001

>  <r_i_glide_ligand_efficiency>  (1) 
-0.14802721657344614

>  <r_i_glide_ligand_efficiency_ln>  (1) 
-1.1626394192316893

>  <r_i_glide_ligand_efficiency_sa>  (1) 
-0.48877509998188823

>  <r_i_glide_lipo>  (1) 
-2.2667747959080975

>  <r_i_glide_metal>  (1) 
-0

>  <r_i_glide_rewards>  (1) 
-0.89341027651011551

>  <r_lp_Energy>  (1) 
58.708514999999998

>  <r_lp_tautomer_probability>  (1) 
0.99990000499974985

>  <s_epik_Chemistry_Notes>  (1) 
This compound has an ester and may undergo hydrolysis at high or low pH.

>  <s_epik_cmdline>  (1) 
J2VwaWtfcHl0aG9uJywgJy1waHQnLCAnMS4wJywgJy1waCcsICc3LjQnLCAnLXRuJywgJzgnLCAnLW1hJywgJzUwMCcsICctaW1hZScsICc8aW5maWxlLm1hZT4nLCAnLW9tYWUnLCAnPG91dGZpbGUubWFlPic=

>  <s_epik_input>  (1) 
W0NIM11bQ0BASF0xT1tDQEBIXShbQ0gzXSlbQ0BIXShPQzE9TylbQ0BASF0oW0NIM10pW1BAXTIoPU8pW0NIMl1bQ0BIXShbT0hdKVtDQEBIXShbTkhdMilDKD1PKVtDQEBIXShbTkgyXSlbQ0gyXVtOSF1jM1tjSF1bY0hdYyhbY0hdW2NIXTMpLWM0W2NIXVtjSF1uW2NIXW40

>  <s_glide_docking_method>  (1) 
confgen

>  <s_i_glide_gridfile>  (1) 
gpcr_drd2_6luq_protein_autoprepared_prepared

>  <s_lp_Force_Field>  (1) 
S-OPLS

>  <s_lp_Variant>  (1) 
DiffSBDD_59-2

>  <s_m_source_file>  (1) 
generated_generic_title2_ligand_DiffSBDD_2026-06-23_prepared.sdf

>  <GenAI_Model>  (1) 
DiffSBDD

>  <Protein>  (1) 
generic_title2

$$$$
DiffSBDD_81
     RDKit          3D

  0  0  0  0  0  0  0  0  0  0999 V3000
M  V30 BEGIN CTAB
M  V30 COUNTS 68 71 0 0 1
M  V30 BEGIN ATOM
M  V30 1 C 7.277686 5.162547 -12.704466 0 CFG=1
M  V30 2 C 11.352729 7.273124 -7.660814 0
M  V30 3 O 11.754243 6.391026 -3.440278 0
M  V30 4 C 11.350433 6.347734 -4.797929 0
M  V30 5 C 8.169252 3.802116 -14.810634 0
M  V30 6 C 8.117335 2.556643 -16.810226 0
M  V30 7 C 8.596703 3.716817 -16.124234 0
M  V30 8 C 6.087187 5.826250 -13.437398 0
M  V30 9 O 10.975434 10.070176 -5.586735 0
M  V30 10 O 9.593893 4.479598 -12.966982 0
M  V30 11 C 8.639216 7.321148 -11.965805 0 CFG=2
M  V30 12 C 8.391707 0.903256 -18.558326 0
M  V30 13 C 6.376532 2.052033 -13.143770 0 CFG=1
M  V30 14 C 7.797170 6.085206 -11.554751 0
M  V30 15 C 6.914667 1.975350 -14.653712 0
M  V30 16 O 11.775410 9.160429 -3.617692 0
M  V30 17 N 6.799614 3.990270 -11.937302 0
M  V30 18 C 9.006982 6.977338 -6.926573 0
M  V30 19 C 7.359772 2.776629 -14.428988 0
M  V30 20 C 10.750612 7.687110 -5.286980 0 CFG=1
M  V30 21 O 5.778055 3.251290 -12.666615 0
M  V30 22 C 8.445219 4.825708 -13.719138 0 CFG=2
M  V30 23 C 9.429992 8.054939 -10.885045 0
M  V30 24 C 7.242692 1.648490 -16.044643 0
M  V30 25 C 11.112187 7.982374 -8.960576 0 CFG=2
M  V30 26 C 10.428023 7.262453 -10.095745 0 CFG=2
M  V30 27 O 7.775382 8.325895 -12.409694 0
M  V30 28 O 9.733190 2.791932 -18.505869 0
M  V30 29 C 11.896760 7.590974 -10.160119 0
M  V30 30 C 11.598756 8.958709 -4.998727 0
M  V30 31 N 8.463947 2.303248 -18.155597 0
M  V30 32 N 10.306901 7.660771 -6.700602 0 CFG=1 CHG=1
M  V30 33 H 11.373770 6.190732 -7.798307 0
M  V30 34 H 12.339064 7.574992 -7.313671 0
M  V30 35 H 11.778500 5.505209 -3.100198 0
M  V30 36 H 10.575881 5.590228 -4.865723 0
M  V30 37 H 12.175414 6.001024 -5.414001 0
M  V30 38 H 9.241019 4.451411 -16.582483 0
M  V30 39 H 6.391736 6.743312 -13.938711 0
M  V30 40 H 5.667632 5.181723 -14.211494 0
M  V30 41 H 5.287519 6.083597 -12.743321 0
M  V30 42 H 11.469106 10.845325 -5.358020 0
M  V30 43 H 10.346450 4.390262 -13.541636 0
M  V30 44 H 9.351409 7.081532 -12.749561 0
M  V30 45 H 7.353247 0.586086 -18.658569 0
M  V30 46 H 8.864359 0.754536 -19.530166 0
M  V30 47 H 8.890196 0.251447 -17.837753 0
M  V30 48 H 7.031011 1.556198 -12.427755 0
M  V30 49 H 6.948460 6.390151 -10.946380 0
M  V30 50 H 8.406200 5.478435 -10.885033 0
M  V30 51 H 11.967488 8.312062 -3.228588 0
M  V30 52 H 6.329396 4.311827 -11.101969 0
M  V30 53 H 9.033977 5.937834 -6.605509 0
M  V30 54 H 8.210569 7.487423 -6.385006 0
M  V30 55 H 8.719980 6.985000 -7.976828 0
M  V30 56 H 9.812748 7.787076 -4.785309 0
M  V30 57 H 8.688882 5.730579 -14.273351 0
M  V30 58 H 10.007576 8.790218 -11.423446 0
M  V30 59 H 8.800695 8.621399 -10.203785 0
M  V30 60 H 6.838735 0.756457 -16.500567 0
M  V30 61 H 10.930578 9.051942 -8.866549 0
M  V30 62 H 10.159566 6.230672 -9.888148 0
M  V30 63 H 7.201959 8.529757 -11.681356 0
M  V30 64 H 10.344591 2.363420 -17.926465 0
M  V30 65 H 12.581497 6.790242 -9.985181 0
M  V30 66 H 12.258998 8.399950 -10.785111 0
M  V30 67 H 12.575713 8.868761 -5.452637 0
M  V30 68 H 10.125994 8.639775 -6.887467 0
M  V30 END ATOM
M  V30 BEGIN BOND
M  V30 1 1 4 3
M  V30 2 2 7 5
M  V30 3 1 7 6
M  V30 4 1 1 8 CFG=3
M  V30 5 1 14 1
M  V30 6 1 14 11
M  V30 7 1 15 13
M  V30 8 1 17 1
M  V30 9 1 19 5
M  V30 10 1 19 13
M  V30 11 2 19 15
M  V30 12 1 20 4
M  V30 13 1 21 13
M  V30 14 1 21 17
M  V30 15 1 22 1
M  V30 16 1 22 5
M  V30 17 1 22 10
M  V30 18 1 23 11
M  V30 19 2 24 6
M  V30 20 1 24 15
M  V30 21 1 25 2
M  V30 22 1 26 23
M  V30 23 1 26 25
M  V30 24 1 27 11
M  V30 25 1 29 25
M  V30 26 1 29 26
M  V30 27 1 30 9
M  V30 28 1 30 16
M  V30 29 1 30 20
M  V30 30 1 31 6
M  V30 31 1 31 12
M  V30 32 1 31 28
M  V30 33 1 32 2
M  V30 34 1 32 18
M  V30 35 1 32 20
M  V30 36 1 33 2
M  V30 37 1 34 2
M  V30 38 1 35 3
M  V30 39 1 36 4
M  V30 40 1 37 4
M  V30 41 1 38 7
M  V30 42 1 39 8
M  V30 43 1 40 8
M  V30 44 1 41 8
M  V30 45 1 42 9
M  V30 46 1 43 10
M  V30 47 1 11 44 CFG=3
M  V30 48 1 45 12
M  V30 49 1 46 12
M  V30 50 1 47 12
M  V30 51 1 13 48 CFG=1
M  V30 52 1 49 14
M  V30 53 1 50 14
M  V30 54 1 51 16
M  V30 55 1 52 17
M  V30 56 1 53 18
M  V30 57 1 54 18
M  V30 58 1 55 18
M  V30 59 1 20 56 CFG=1
M  V30 60 1 22 57 CFG=3
M  V30 61 1 58 23
M  V30 62 1 59 23
M  V30 63 1 60 24
M  V30 64 1 25 61 CFG=1
M  V30 65 1 26 62 CFG=1
M  V30 66 1 63 27
M  V30 67 1 64 28
M  V30 68 1 65 29
M  V30 69 1 66 29
M  V30 70 1 67 30
M  V30 71 1 32 68 CFG=3
M  V30 END BOND
M  V30 END CTAB
M  END
>  <i_epik_Tot_Q>  (1) 
1

>  <i_epik_Tot_abs_Q>  (1) 
1

>  <i_i_glide_confnum>  (1) 
4042

>  <i_i_glide_lignum>  (1) 
144

>  <i_i_glide_posenum>  (1) 
92

>  <i_i_glide_rotatable_bonds>  (1) 
16

>  <i_lp_mmshare_version>  (1) 
72125

>  <i_m_source_file_index>  (1) 
82

>  <i_f3d_flags>  (1) 
0

>  <num_sample>  (1) 
100

>  <b_lp_Chiralities_Consistent>  (1) 
1

>  <r_epik_Charging_Adjusted_Penalty>  (1) 
0.61642058797261945

>  <r_epik_Ionization_Penalty>  (1) 
0.30960007796245242

>  <r_epik_Ionization_Penalty_Charging>  (1) 
0.30821029398630978

>  <r_epik_Ionization_Penalty_Neutral>  (1) 
0.0013897839761426282

>  <r_epik_State_Penalty>  (1) 
0.30821029398630967

>  <r_glide_ring_energy>  (1) 
0

>  <r_i_docking_score>  (1) 
-5.3253219421539022

>  <r_i_glide_ecoul>  (1) 
-8.7028985126564784

>  <r_i_glide_eff_state_penalty>  (1) 
0.30821029398630967

>  <r_i_glide_einternal>  (1) 
17.525391773555036

>  <r_i_glide_emodel>  (1) 
-37.747801012313047

>  <r_i_glide_emodel_strain>  (1) 
2.080336215166426

>  <r_i_glide_energy>  (1) 
-36.74898923104584

>  <r_i_glide_erotb>  (1) 
0.97195684176611152

>  <r_i_glide_esite>  (1) 
0

>  <r_i_glide_evdw>  (1) 
-28.046090718389365

>  <r_i_glide_gscore>  (1) 
-5.633532236140212

>  <r_i_glide_gscore_strain>  (1) 
0

>  <r_i_glide_hbond>  (1) 
-0.31559577813201756

>  <r_i_glide_ligand_efficiency>  (1) 
-0.16641631069230944

>  <r_i_glide_ligand_efficiency_ln>  (1) 
-1.1924847456418708

>  <r_i_glide_ligand_efficiency_sa>  (1) 
-0.52833885331527752

>  <r_i_glide_lipo>  (1) 
-1.9559568234203579

>  <r_i_glide_metal>  (1) 
-0

>  <r_i_glide_rewards>  (1) 
-1.6261971635360064

>  <r_lp_Energy>  (1) 
74.801774999999992

>  <s_epik_Chemistry_Notes>  (1) 
This compound contains an acetal/aminal-like group ( X-CH(R)-Y where X, Y are N, S, or O) that may be acid/base labile, releasing an aldehyde. This compound has a N-S or N-O group and may undergo hydrolysis at high or low pH.

>  <s_epik_cmdline>  (1) 
J2VwaWtfcHl0aG9uJywgJy1waHQnLCAnMS4wJywgJy1waCcsICc3LjQnLCAnLXRuJywgJzgnLCAnLW1hJywgJzUwMCcsICctaW1hZScsICc8aW5maWxlLm1hZT4nLCAnLW9tYWUnLCAnPG91dGZpbGUubWFlPic=

>  <s_epik_input>  (1) 
W0NIM11OKFtPSF0pYyhbY0hdMSlbY0hdYyhjMmMxMylbQ0BASF0yT1tOSF1bQ0BdKFtDSDNdKShbQ0BIXTNbT0hdKVtDSDJdW0NAQEhdKFtPSF0pW0NIMl1bQ0BASF0oW0NIMl00KVtDQEhdNFtDSDJdTihbQ0gzXSlbQ0BASF0oW0NIMl1bT0hdKVtDSF0oW09IXSlbT0hd

>  <s_glide_docking_method>  (1) 
confgen

>  <s_i_glide_gridfile>  (1) 
gpcr_drd2_6luq_protein_autoprepared_prepared

>  <s_lp_Force_Field>  (1) 
S-OPLS

>  <s_lp_Variant>  (1) 
DiffSBDD_81-2

>  <s_m_source_file>  (1) 
generated_generic_title2_ligand_DiffSBDD_2026-06-23_prepared.sdf

>  <GenAI_Model>  (1) 
DiffSBDD

>  <Protein>  (1) 
generic_title2

$$$$
DiffSBDD_26
     RDKit          3D

  0  0  0  0  0  0  0  0  0  0999 V3000
M  V30 BEGIN CTAB
M  V30 COUNTS 56 58 0 0 1
M  V30 BEGIN ATOM
M  V30 1 C 5.667345 5.307453 -14.446636 0
M  V30 2 O 11.845092 7.590287 -10.821583 0
M  V30 3 C 6.675063 6.279793 -17.737604 0 CFG=1
M  V30 4 C 9.265067 5.152207 -9.604658 0
M  V30 5 C 4.799724 7.834241 -16.799603 0
M  V30 6 C 7.911515 5.948609 -14.017366 0
M  V30 7 C 7.914643 5.325059 -11.530527 0 CFG=2
M  V30 8 C 7.803280 4.951319 -9.172775 0
M  V30 9 C 5.448948 4.277551 -12.120052 0
M  V30 10 N 7.003305 5.218705 -10.384762 0 CFG=2 CHG=1
M  V30 11 N 9.015850 7.393597 -10.785099 0
M  V30 12 C 7.056783 5.419830 -18.954934 0
M  V30 13 C 9.781575 8.089432 -9.742094 0
M  V30 14 C 5.730002 4.493708 -10.620978 0
M  V30 15 C 5.164852 6.696945 -17.778738 0
M  V30 16 C 5.767479 5.538041 -12.938479 0 CFG=1
M  V30 17 C 6.828641 6.077690 -15.080360 0 CFG=1
M  V30 18 C 9.193015 5.941353 -10.933561 0 CFG=1
M  V30 19 O 6.486864 4.350588 -19.176053 0
M  V30 20 C 7.214491 5.540269 -16.474692 0
M  V30 21 O 11.899293 8.119686 -8.663301 0 CHG=-1
M  V30 22 C 7.193915 6.053990 -12.684754 0 CFG=2
M  V30 23 C 4.735366 7.179014 -19.186448 0
M  V30 24 C 11.306427 7.917143 -9.744552 0
M  V30 25 H 4.692532 5.590108 -14.834348 0
M  V30 26 H 5.795014 4.244543 -14.651307 0
M  V30 27 H 7.251564 7.190593 -17.862676 0
M  V30 28 H 9.704599 4.175305 -9.817326 0
M  V30 29 H 9.887513 5.596365 -8.827685 0
M  V30 30 H 5.526231 8.648151 -16.826101 0
M  V30 31 H 4.694971 7.514967 -15.770683 0
M  V30 32 H 3.814258 8.238698 -17.023254 0
M  V30 33 H 8.473340 5.016526 -14.111733 0
M  V30 34 H 8.575423 6.790463 -14.047009 0
M  V30 35 H 8.164038 4.308054 -11.840803 0
M  V30 36 H 7.604008 3.990166 -8.717843 0
M  V30 37 H 7.547615 5.686998 -8.416974 0
M  V30 38 H 4.414123 3.990316 -12.293949 0
M  V30 39 H 6.052248 3.441262 -12.477058 0
M  V30 40 H 8.054296 7.590027 -10.473247 0
M  V30 41 H 7.846598 5.824554 -19.590101 0
M  V30 42 H 9.561018 9.154332 -9.810777 0
M  V30 43 H 9.407134 7.778013 -8.765816 0
M  V30 44 H 5.708152 3.543291 -10.088189 0
M  V30 45 H 4.938704 5.122100 -10.214776 0
M  V30 46 H 4.556045 5.831760 -17.517215 0
M  V30 47 H 5.073449 6.333533 -12.658092 0
M  V30 48 H 6.632510 7.145625 -15.123992 0
M  V30 49 H 10.066302 5.756531 -11.560403 0
M  V30 50 H 6.972634 4.477118 -16.530899 0
M  V30 51 H 8.303304 5.570805 -16.545909 0
M  V30 52 H 7.091446 7.114133 -12.446557 0
M  V30 53 H 5.453572 7.891826 -19.592234 0
M  V30 54 H 3.775477 7.686927 -19.166803 0
M  V30 55 H 4.637715 6.352831 -19.890392 0
M  V30 56 H 6.729360 6.187137 -10.226131 0
M  V30 END ATOM
M  V30 BEGIN BOND
M  V30 1 1 8 4
M  V30 2 1 10 7
M  V30 3 1 10 8
M  V30 4 1 12 3
M  V30 5 1 13 11
M  V30 6 1 14 9
M  V30 7 1 14 10
M  V30 8 1 15 3
M  V30 9 1 15 5
M  V30 10 1 16 1
M  V30 11 1 16 9
M  V30 12 1 17 1
M  V30 13 1 17 6
M  V30 14 1 18 4
M  V30 15 1 18 7
M  V30 16 1 18 11
M  V30 17 2 19 12
M  V30 18 1 20 3
M  V30 19 1 20 17
M  V30 20 1 22 6
M  V30 21 1 22 7
M  V30 22 1 22 16
M  V30 23 1 23 15
M  V30 24 2 24 2
M  V30 25 1 24 13
M  V30 26 1 24 21
M  V30 27 1 25 1
M  V30 28 1 26 1
M  V30 29 1 3 27 CFG=3
M  V30 30 1 28 4
M  V30 31 1 29 4
M  V30 32 1 30 5
M  V30 33 1 31 5
M  V30 34 1 32 5
M  V30 35 1 33 6
M  V30 36 1 34 6
M  V30 37 1 7 35 CFG=3
M  V30 38 1 36 8
M  V30 39 1 37 8
M  V30 40 1 38 9
M  V30 41 1 39 9
M  V30 42 1 40 11
M  V30 43 1 41 12
M  V30 44 1 42 13
M  V30 45 1 43 13
M  V30 46 1 44 14
M  V30 47 1 45 14
M  V30 48 1 46 15
M  V30 49 1 16 47 CFG=1
M  V30 50 1 17 48 CFG=3
M  V30 51 1 18 49 CFG=3
M  V30 52 1 50 20
M  V30 53 1 51 20
M  V30 54 1 22 52 CFG=1
M  V30 55 1 53 23
M  V30 56 1 54 23
M  V30 57 1 55 23
M  V30 58 1 10 56 CFG=1
M  V30 END BOND
M  V30 END CTAB
M  END
>  <i_epik_Tot_Q>  (1) 
0

>  <i_epik_Tot_abs_Q>  (1) 
2

>  <i_i_glide_confnum>  (1) 
16

>  <i_i_glide_lignum>  (1) 
46

>  <i_i_glide_posenum>  (1) 
302

>  <i_i_glide_rotatable_bonds>  (1) 
7

>  <i_lp_mmshare_version>  (1) 
72125

>  <i_m_source_file_index>  (1) 
27

>  <i_f3d_flags>  (1) 
0

>  <num_sample>  (1) 
100

>  <b_lp_Chiralities_Consistent>  (1) 
1

>  <r_epik_Charging_Adjusted_Penalty>  (1) 
0.19178745009715187

>  <r_epik_Ionization_Penalty>  (1) 
0.029917907437945299

>  <r_epik_Ionization_Penalty_Charging>  (1) 
0.0050195782491265998

>  <r_epik_Ionization_Penalty_Neutral>  (1) 
0.024898329188818697

>  <r_epik_State_Penalty>  (1) 
0.18676787184802526

>  <r_glide_ring_energy>  (1) 
0

>  <r_i_docking_score>  (1) 
-5.3246867045966706

>  <r_i_glide_ecoul>  (1) 
-10.48449245969929

>  <r_i_glide_eff_state_penalty>  (1) 
0.18676787184802526

>  <r_i_glide_einternal>  (1) 
9.802094053861973

>  <r_i_glide_emodel>  (1) 
-30.152721609142503

>  <r_i_glide_emodel_strain>  (1) 
3.5268861514832963

>  <r_i_glide_energy>  (1) 
-28.344752593225358

>  <r_i_glide_erotb>  (1) 
0.66727664270853937

>  <r_i_glide_esite>  (1) 
-0.10000000000000001

>  <r_i_glide_evdw>  (1) 
-17.860260133526069

>  <r_i_glide_gscore>  (1) 
-5.5114545764446961

>  <r_i_glide_gscore_strain>  (1) 
0

>  <r_i_glide_hbond>  (1) 
-0.35999999999999999

>  <r_i_glide_ligand_efficiency>  (1) 
-0.22186194602486128

>  <r_i_glide_ligand_efficiency_ln>  (1) 
-1.2744418623618439

>  <r_i_glide_ligand_efficiency_sa>  (1) 
-0.6399605926438432

>  <r_i_glide_lipo>  (1) 
-1.3766444800254372

>  <r_i_glide_metal>  (1) 
-0

>  <r_i_glide_rewards>  (1) 
-1.8763998634966017

>  <r_lp_Energy>  (1) 
40.618023999999998

>  <r_lp_tautomer_probability>  (1) 
0.99990000499974985

>  <s_epik_cmdline>  (1) 
J2VwaWtfcHl0aG9uJywgJy1waHQnLCAnMS4wJywgJy1waCcsICc3LjQnLCAnLXRuJywgJzgnLCAnLW1hJywgJzUwMCcsICctaW1hZScsICc8aW5maWxlLm1hZT4nLCAnLW9tYWUnLCAnPG91dGZpbGUubWFlPic=

>  <s_epik_input>  (1) 
W0NIM11bQ0hdKFtDSDNdKVtDQEhdKFtDSF09TylbQ0gyXVtDQEBIXShbQ0gyXTEpW0NIMl1bQ0BIXTJbQ0BASF0xW0NIMl1bQ0gyXU4oW0NAQEhdMjMpW0NIMl1bQ0gyXVtDQEBIXTNbTkhdW0NIMl1DKD1PKVtPSF0=

>  <s_glide_docking_method>  (1) 
confgen

>  <s_i_glide_gridfile>  (1) 
gpcr_drd2_6luq_protein_autoprepared_prepared

>  <s_lp_Force_Field>  (1) 
S-OPLS

>  <s_lp_Variant>  (1) 
DiffSBDD_26-2

>  <s_m_source_file>  (1) 
generated_generic_title2_ligand_DiffSBDD_2026-06-23_prepared.sdf

>  <GenAI_Model>  (1) 
DiffSBDD

>  <Protein>  (1) 
generic_title2

$$$$
DiffSBDD_67
     RDKit          3D

  0  0  0  0  0  0  0  0  0  0999 V3000
M  V30 BEGIN CTAB
M  V30 COUNTS 67 69 0 0 1
M  V30 BEGIN ATOM
M  V30 1 C 9.544577 6.507764 -9.161261 0
M  V30 2 C 7.823484 4.471555 -11.893653 0
M  V30 3 C 10.676013 6.175058 -6.886188 0
M  V30 4 C 7.158471 1.313776 -15.633086 0
M  V30 5 F 11.313927 8.122428 -9.314287 0
M  V30 6 C 7.866027 3.232687 -17.789939 0
M  V30 7 C 6.326672 5.619673 -20.419319 0
M  V30 8 C 4.944786 7.590482 -19.603741 0
M  V30 9 C 7.926291 4.353411 -18.855079 0 CFG=2
M  V30 10 C 6.592141 6.456320 -18.056726 0
M  V30 11 C 9.723111 6.130388 -11.956819 0
M  V30 12 C 8.761718 5.409696 -11.210518 0
M  V30 13 C 5.246493 7.189805 -18.152327 0
M  V30 14 C 7.356097 1.635055 -13.223187 0
M  V30 15 C 10.575402 7.042636 -11.311911 0
M  V30 16 C 9.219371 5.186652 -18.757618 0
M  V30 17 C 10.488653 7.237037 -9.920362 0
M  V30 18 C 7.318759 2.979427 -13.966012 0 CFG=2
M  V30 19 C 7.008204 0.590542 -14.288232 0
M  V30 20 O 6.827516 3.990239 -11.355452 0
M  V30 21 C 8.677529 5.592058 -9.811497 0
M  V30 22 N 7.771216 2.626896 -15.330342 0 CFG=2 CHG=1
M  V30 23 F 11.774874 6.908156 -7.054659 0
M  V30 24 C 9.048090 8.139211 -7.213315 0
M  V30 25 C 7.584761 3.695601 -16.345651 0
M  V30 26 C 9.445459 6.710075 -7.645223 0
M  V30 27 C 6.623510 5.199750 -18.962543 0
M  V30 28 C 8.162800 4.118586 -13.348778 0
M  V30 29 F 10.087669 8.857159 -6.789462 0
M  V30 30 C 4.984969 6.364906 -20.530745 0
M  V30 31 H 10.488701 6.119572 -5.813550 0
M  V30 32 H 10.938857 5.190228 -7.244403 0
M  V30 33 H 7.768549 0.742844 -16.334500 0
M  V30 34 H 6.175415 1.456938 -16.082948 0
M  V30 35 H 8.807416 2.682041 -17.815465 0
M  V30 36 H 7.099212 2.519114 -18.094390 0
M  V30 37 H 7.128755 6.253662 -20.797959 0
M  V30 38 H 6.298481 4.741116 -21.065726 0
M  V30 39 H 3.970342 8.076000 -19.659632 0
M  V30 40 H 5.675838 8.328024 -19.939509 0
M  V30 41 H 8.013854 3.810226 -19.797342 0
M  V30 42 H 6.786736 6.208787 -17.015994 0
M  V30 43 H 7.380462 7.146834 -18.357086 0
M  V30 44 H 9.800298 5.997319 -13.024627 0
M  V30 45 H 4.448031 6.551475 -17.771484 0
M  V30 46 H 5.263701 8.075579 -17.517426 0
M  V30 47 H 8.357069 1.443754 -12.831726 0
M  V30 48 H 6.659105 1.596651 -12.385016 0
M  V30 49 H 11.302167 7.590226 -11.885112 0
M  V30 50 H 9.286922 5.739508 -17.821160 0
M  V30 51 H 10.101307 4.548701 -18.823218 0
M  V30 52 H 9.284700 5.907949 -19.572585 0
M  V30 53 H 6.277111 3.303341 -14.026251 0
M  V30 54 H 7.673205 -0.271683 -14.218207 0
M  V30 55 H 5.988580 0.223044 -14.163451 0
M  V30 56 H 7.944176 5.042495 -9.237596 0
M  V30 57 H 8.575412 8.700141 -8.017094 0
M  V30 58 H 8.342985 8.107360 -6.384527 0
M  V30 59 H 6.576881 4.096972 -16.261789 0
M  V30 60 H 8.264333 4.510022 -16.097782 0
M  V30 61 H 8.609510 6.081357 -7.335346 0
M  V30 62 H 5.796072 4.555110 -18.662282 0
M  V30 63 H 8.039363 5.025174 -13.940368 0
M  V30 64 H 9.217527 3.845130 -13.388056 0
M  V30 65 H 4.175420 5.681709 -20.272816 0
M  V30 66 H 4.812888 6.673403 -21.562696 0
M  V30 67 H 8.762741 2.451724 -15.267770 0
M  V30 END ATOM
M  V30 BEGIN BOND
M  V30 1 1 9 6
M  V30 2 1 12 2
M  V30 3 1 12 11
M  V30 4 1 13 8
M  V30 5 1 13 10
M  V30 6 2 15 11
M  V30 7 1 16 9
M  V30 8 2 17 1
M  V30 9 1 17 5
M  V30 10 1 17 15
M  V30 11 1 18 14
M  V30 12 1 19 4
M  V30 13 1 19 14
M  V30 14 2 20 2
M  V30 15 1 21 1
M  V30 16 2 21 12
M  V30 17 1 22 4
M  V30 18 1 22 18
M  V30 19 1 23 3
M  V30 20 1 25 6
M  V30 21 1 25 22
M  V30 22 1 26 1
M  V30 23 1 26 3
M  V30 24 1 26 24
M  V30 25 1 27 7
M  V30 26 1 27 9
M  V30 27 1 27 10
M  V30 28 1 28 2
M  V30 29 1 28 18
M  V30 30 1 29 24
M  V30 31 1 30 7
M  V30 32 1 30 8
M  V30 33 1 31 3
M  V30 34 1 32 3
M  V30 35 1 33 4
M  V30 36 1 34 4
M  V30 37 1 35 6
M  V30 38 1 36 6
M  V30 39 1 37 7
M  V30 40 1 38 7
M  V30 41 1 39 8
M  V30 42 1 40 8
M  V30 43 1 9 41 CFG=3
M  V30 44 1 42 10
M  V30 45 1 43 10
M  V30 46 1 44 11
M  V30 47 1 45 13
M  V30 48 1 46 13
M  V30 49 1 47 14
M  V30 50 1 48 14
M  V30 51 1 49 15
M  V30 52 1 50 16
M  V30 53 1 51 16
M  V30 54 1 52 16
M  V30 55 1 18 53 CFG=3
M  V30 56 1 54 19
M  V30 57 1 55 19
M  V30 58 1 56 21
M  V30 59 1 57 24
M  V30 60 1 58 24
M  V30 61 1 59 25
M  V30 62 1 60 25
M  V30 63 1 61 26
M  V30 64 1 62 27
M  V30 65 1 63 28
M  V30 66 1 64 28
M  V30 67 1 65 30
M  V30 68 1 66 30
M  V30 69 1 22 67 CFG=1
M  V30 END BOND
M  V30 END CTAB
M  END
>  <i_epik_Tot_Q>  (1) 
1

>  <i_epik_Tot_abs_Q>  (1) 
1

>  <i_i_glide_confnum>  (1) 
234

>  <i_i_glide_lignum>  (1) 
110

>  <i_i_glide_posenum>  (1) 
273

>  <i_i_glide_rotatable_bonds>  (1) 
10

>  <i_lp_mmshare_version>  (1) 
72125

>  <i_m_source_file_index>  (1) 
68

>  <i_f3d_flags>  (1) 
0

>  <num_sample>  (1) 
100

>  <b_lp_Chiralities_Consistent>  (1) 
1

>  <r_epik_Charging_Adjusted_Penalty>  (1) 
0.0091991127420811905

>  <r_epik_Ionization_Penalty>  (1) 
0.0045995563710408641

>  <r_epik_Ionization_Penalty_Charging>  (1) 
0.0045995563710406013

>  <r_epik_Ionization_Penalty_Neutral>  (1) 
2.6311653613664267e-16

>  <r_epik_State_Penalty>  (1) 
0.0045995563710405883

>  <r_glide_ring_energy>  (1) 
0

>  <r_i_docking_score>  (1) 
-5.3238429132679288

>  <r_i_glide_ecoul>  (1) 
-3.227443181039277

>  <r_i_glide_eff_state_penalty>  (1) 
0.0045995563710405883

>  <r_i_glide_einternal>  (1) 
11.936258471889285

>  <r_i_glide_emodel>  (1) 
-34.500626576931062

>  <r_i_glide_emodel_strain>  (1) 
1.815834195829801

>  <r_i_glide_energy>  (1) 
-33.374514533350975

>  <r_i_glide_erotb>  (1) 
0.77002039440311598

>  <r_i_glide_esite>  (1) 
0

>  <r_i_glide_evdw>  (1) 
-30.147071352311698

>  <r_i_glide_gscore>  (1) 
-5.3284424696389694

>  <r_i_glide_gscore_strain>  (1) 
0

>  <r_i_glide_hbond>  (1) 
0

>  <r_i_glide_ligand_efficiency>  (1) 
-0.17746143044226428

>  <r_i_glide_ligand_efficiency_ln>  (1) 
-1.2096351178090827

>  <r_i_glide_ligand_efficiency_sa>  (1) 
-0.55141392522327337

>  <r_i_glide_lipo>  (1) 
-2.0473941370039617

>  <r_i_glide_metal>  (1) 
-0

>  <r_i_glide_rewards>  (1) 
-2.059598682266647

>  <r_lp_Energy>  (1) 
29.482433999999998

>  <r_lp_tautomer_probability>  (1) 
0.99990000499974985

>  <s_epik_cmdline>  (1) 
J2VwaWtfcHl0aG9uJywgJy1waHQnLCAnMS4wJywgJy1waCcsICc3LjQnLCAnLXRuJywgJzgnLCAnLW1hJywgJzUwMCcsICctaW1hZScsICc8aW5maWxlLm1hZT4nLCAnLW9tYWUnLCAnPG91dGZpbGUubWFlPic=

>  <s_epik_input>  (1) 
RltDSDJdW0NIXShbQ0gyXUYpYzFjKEYpW2NIXVtjSF1jKFtjSF0xKUMoPU8pW0NIMl1bQ0BASF0yW0NIMl1bQ0gyXVtDSDJdTjJbQ0gyXVtDSDJdW0NASF0oW0NIM10pW0NIXTNbQ0gyXVtDSDJdW0NIMl1bQ0gyXVtDSDJdMw==

>  <s_glide_docking_method>  (1) 
confgen

>  <s_i_glide_gridfile>  (1) 
gpcr_drd2_6luq_protein_autoprepared_prepared

>  <s_lp_Force_Field>  (1) 
S-OPLS

>  <s_lp_Variant>  (1) 
DiffSBDD_67-2

>  <s_m_source_file>  (1) 
generated_generic_title2_ligand_DiffSBDD_2026-06-23_prepared.sdf

>  <GenAI_Model>  (1) 
DiffSBDD

>  <Protein>  (1) 
generic_title2

$$$$
DiffSBDD_47
     RDKit          3D

  0  0  0  0  0  0  0  0  0  0999 V3000
M  V30 BEGIN CTAB
M  V30 COUNTS 52 54 0 0 1
M  V30 BEGIN ATOM
M  V30 1 C 9.191254 5.640573 -11.034619 0
M  V30 2 C 5.211325 3.866858 -13.264257 0
M  V30 3 O 9.522465 5.590173 -13.405059 0
M  V30 4 C 11.403524 7.572755 -7.569265 0 CFG=2
M  V30 5 C 11.263343 8.450773 -5.176410 0 CFG=2
M  V30 6 N 8.065417 4.112070 -12.504987 0
M  V30 7 C 10.430978 7.034935 -9.475188 0
M  V30 8 O 10.975371 10.634454 -4.384894 0
M  V30 9 C 11.469069 7.993249 -9.105411 0
M  V30 10 C 8.464355 5.107735 -9.929434 0
M  V30 11 C 12.175400 7.524505 -2.921044 0
M  V30 12 C 9.752651 6.504455 -8.435263 0
M  V30 13 O 7.485199 1.279440 -14.792298 0
M  V30 14 O 12.575416 6.847417 -1.984961 0
M  V30 15 C 11.853410 9.540362 -4.279937 0 CFG=1
M  V30 16 C 12.078975 9.040171 -2.844629 0
M  V30 17 C 8.941218 5.119690 -12.428429 0
M  V30 18 C 10.175316 6.644574 -10.796554 0
M  V30 19 C 8.751122 5.548468 -8.625225 0
M  V30 20 C 7.677328 1.947696 -13.562574 0
M  V30 21 O 10.124272 6.934340 -7.220751 0
M  V30 22 C 6.469198 5.582172 -14.607751 0
M  V30 23 S 11.634122 6.816378 -4.459691 0
M  V30 24 O 10.893966 7.189491 -11.824019 0
M  V30 25 C 11.711642 8.705385 -6.623812 0
M  V30 26 C 6.371678 4.086374 -14.255091 0
M  V30 27 C 7.700856 3.479496 -13.760854 0 CFG=1
M  V30 28 H 5.444109 4.242023 -12.267637 0
M  V30 29 H 4.302893 4.371209 -13.584979 0
M  V30 30 H 4.977289 2.808173 -13.185012 0
M  V30 31 H 12.148419 6.791353 -7.405964 0
M  V30 32 H 10.175428 8.498440 -5.184123 0
M  V30 33 H 7.630342 3.773895 -11.661637 0
M  V30 34 H 10.144596 10.418709 -3.990609 0
M  V30 35 H 12.438798 7.802932 -9.566598 0
M  V30 36 H 11.127413 9.011916 -9.297427 0
M  V30 37 H 7.705341 4.357803 -10.079606 0
M  V30 38 H 7.418951 0.349692 -14.626999 0
M  V30 39 H 12.824707 9.855729 -4.662207 0
M  V30 40 H 11.251368 9.299018 -2.191875 0
M  V30 41 H 12.977770 9.468939 -2.408009 0
M  V30 42 H 8.217537 5.139404 -7.779474 0
M  V30 43 H 8.629702 1.610897 -13.150774 0
M  V30 44 H 6.906271 1.641038 -12.855918 0
M  V30 45 H 6.567585 6.201776 -13.715252 0
M  V30 46 H 7.323993 5.790861 -15.248926 0
M  V30 47 H 5.574577 5.913252 -15.135955 0
M  V30 48 H 10.632769 6.793150 -12.649772 0
M  V30 49 H 12.772534 8.941903 -6.699090 0
M  V30 50 H 11.188409 9.590630 -6.974863 0
M  V30 51 H 6.175408 3.565934 -15.185958 0
M  V30 52 H 8.461627 3.676484 -14.518753 0
M  V30 END ATOM
M  V30 BEGIN BOND
M  V30 1 1 9 4
M  V30 2 1 9 7
M  V30 3 1 10 1
M  V30 4 2 12 7
M  V30 5 2 14 11
M  V30 6 1 15 5
M  V30 7 1 15 8
M  V30 8 1 16 11
M  V30 9 1 16 15
M  V30 10 1 17 1
M  V30 11 2 17 3
M  V30 12 1 17 6
M  V30 13 2 18 1
M  V30 14 1 18 7
M  V30 15 2 19 10
M  V30 16 1 19 12
M  V30 17 1 20 13
M  V30 18 1 21 4
M  V30 19 1 21 12
M  V30 20 1 23 5
M  V30 21 1 23 11
M  V30 22 1 24 18
M  V30 23 1 25 4
M  V30 24 1 25 5
M  V30 25 1 26 2
M  V30 26 1 26 22
M  V30 27 1 27 6
M  V30 28 1 27 20
M  V30 29 1 27 26
M  V30 30 1 28 2
M  V30 31 1 29 2
M  V30 32 1 30 2
M  V30 33 1 4 31 CFG=3
M  V30 34 1 5 32 CFG=3
M  V30 35 1 33 6
M  V30 36 1 34 8
M  V30 37 1 35 9
M  V30 38 1 36 9
M  V30 39 1 37 10
M  V30 40 1 38 13
M  V30 41 1 15 39 CFG=3
M  V30 42 1 40 16
M  V30 43 1 41 16
M  V30 44 1 42 19
M  V30 45 1 43 20
M  V30 46 1 44 20
M  V30 47 1 45 22
M  V30 48 1 46 22
M  V30 49 1 47 22
M  V30 50 1 48 24
M  V30 51 1 49 25
M  V30 52 1 50 25
M  V30 53 1 51 26
M  V30 54 1 27 52 CFG=3
M  V30 END BOND
M  V30 END CTAB
M  END
>  <i_epik_Tot_Q>  (1) 
0

>  <i_epik_Tot_abs_Q>  (1) 
0

>  <i_i_glide_confnum>  (1) 
79

>  <i_i_glide_lignum>  (1) 
76

>  <i_i_glide_posenum>  (1) 
306

>  <i_i_glide_rotatable_bonds>  (1) 
10

>  <i_lp_mmshare_version>  (1) 
72125

>  <i_m_source_file_index>  (1) 
48

>  <i_f3d_flags>  (1) 
0

>  <num_sample>  (1) 
100

>  <b_lp_Chiralities_Consistent>  (1) 
1

>  <r_epik_Charging_Adjusted_Penalty>  (1) 
0.019901406152345185

>  <r_epik_Ionization_Penalty>  (1) 
0.019911706661848872

>  <r_epik_Ionization_Penalty_Charging>  (1) 
0

>  <r_epik_Ionization_Penalty_Neutral>  (1) 
0.019911706661848872

>  <r_epik_State_Penalty>  (1) 
0.019901406152345185

>  <r_glide_ring_energy>  (1) 
0

>  <r_i_docking_score>  (1) 
-5.3225099966618643

>  <r_i_glide_ecoul>  (1) 
0.61709320043149063

>  <r_i_glide_eff_state_penalty>  (1) 
0.019901406152345185

>  <r_i_glide_einternal>  (1) 
10.756881683814033

>  <r_i_glide_emodel>  (1) 
-36.731362341851444

>  <r_i_glide_emodel_strain>  (1) 
2.5190602066155492

>  <r_i_glide_energy>  (1) 
-34.107917372765471

>  <r_i_glide_erotb>  (1) 
0.75018821045154971

>  <r_i_glide_esite>  (1) 
0

>  <r_i_glide_evdw>  (1) 
-34.725010573196961

>  <r_i_glide_gscore>  (1) 
-5.3424114028142098

>  <r_i_glide_gscore_strain>  (1) 
0

>  <r_i_glide_hbond>  (1) 
-0.00025813489124571691

>  <r_i_glide_ligand_efficiency>  (1) 
-0.19712999987636534

>  <r_i_glide_ligand_efficiency_ln>  (1) 
-1.2389925787876743

>  <r_i_glide_ligand_efficiency_sa>  (1) 
-0.59138999962909611

>  <r_i_glide_lipo>  (1) 
-2.346427798924875

>  <r_i_glide_metal>  (1) 
-0

>  <r_i_glide_rewards>  (1) 
-2.1022271308545144

>  <r_lp_Energy>  (1) 
10.170142999999999

>  <r_lp_tautomer_probability>  (1) 
1

>  <s_epik_cmdline>  (1) 
J2VwaWtfcHl0aG9uJywgJy1waHQnLCAnMS4wJywgJy1waCcsICc3LjQnLCAnLXRuJywgJzgnLCAnLW1hJywgJzUwMCcsICctaW1hZScsICc8aW5maWxlLm1hZT4nLCAnLW9tYWUnLCAnPG91dGZpbGUubWFlPic=

>  <s_epik_input>  (1) 
W0NIM11bQ0hdKFtDSDNdKVtDQEhdKFtDSDJdW09IXSlbTkhdQyg9TyljKGMxW09IXSlbY0hdW2NIXWMoYzEyKU9bQ0BASF0oW0NIMl0yKVtDSDJdW0NAQEhdM1tDQEBIXShbT0hdKVtDSDJdQyg9TylTMw==

>  <s_glide_docking_method>  (1) 
confgen

>  <s_i_glide_gridfile>  (1) 
gpcr_drd2_6luq_protein_autoprepared_prepared

>  <s_lp_Force_Field>  (1) 
S-OPLS

>  <s_lp_Variant>  (1) 
DiffSBDD_47-1

>  <s_m_source_file>  (1) 
generated_generic_title2_ligand_DiffSBDD_2026-06-23_prepared.sdf

>  <GenAI_Model>  (1) 
DiffSBDD

>  <Protein>  (1) 
generic_title2

$$$$
DiffSBDD_89
     RDKit          3D

  0  0  0  0  0  0  0  0  0  0999 V3000
M  V30 BEGIN CTAB
M  V30 COUNTS 79 82 0 0 1
M  V30 BEGIN ATOM
M  V30 1 C 10.716365 7.526102 -5.966120 0
M  V30 2 O 5.352387 -0.004927 -15.009711 0
M  V30 3 C 8.861905 -0.272804 -16.881585 0
M  V30 4 C 7.294302 0.969516 -14.030581 0
M  V30 5 C 6.369241 0.663735 -15.168873 0
M  V30 6 C 6.742968 1.238921 -16.530913 0 CFG=2
M  V30 7 F 12.653524 9.459030 -5.193795 0
M  V30 8 C 8.587331 5.373339 -8.091796 0
M  V30 9 C 9.706746 4.272457 -11.984489 0
M  V30 10 C 10.611962 7.561384 -11.151030 0
M  V30 11 F 13.447962 9.190247 -7.184885 0
M  V30 12 F 11.775412 10.559243 -6.784456 0
M  V30 13 C 7.667728 0.658094 -18.893821 0
M  V30 14 C 8.239065 4.583859 -15.006789 0 CFG=2
M  V30 15 C 10.177003 7.129444 -8.686739 0
M  V30 16 N 7.622717 3.218879 -15.193592 0
M  V30 17 C 5.926369 7.965952 -16.123145 0
M  V30 18 C 7.502344 0.193700 -17.433195 0
M  V30 19 O 11.017874 7.664695 -4.664171 0
M  V30 20 C 9.059971 5.881107 -10.415253 0
M  V30 21 C 9.927952 6.859927 -10.044532 0
M  V30 22 C 8.966136 5.616620 -11.890456 0 CFG=1
M  V30 23 C 11.091470 8.126689 -8.294355 0
M  V30 24 C 11.357291 8.325547 -6.924147 0
M  V30 25 C 8.370889 5.120511 -9.450502 0
M  V30 26 C 7.375059 2.679407 -16.444414 0
M  V30 27 O 7.612823 3.287194 -17.485527 0
M  V30 28 C 7.460737 5.683173 -14.151023 0 CFG=1
M  V30 29 C 9.024621 5.202828 -16.193251 0
M  V30 30 C 9.775241 6.575011 -6.353434 0
M  V30 31 C 12.336103 9.397114 -6.490194 0
M  V30 32 C 5.998429 5.935650 -14.577935 0 CFG=2
M  V30 33 F 5.375589 4.792627 -14.385124 0
M  V30 34 O 6.704152 -0.973706 -17.555066 0
M  V30 35 C 7.307689 2.485683 -13.947794 0
M  V30 36 C 9.903196 6.824558 -12.358349 0
M  V30 37 C 7.540596 5.687979 -12.556754 0 CFG=1
M  V30 38 C 6.422444 4.931350 -11.779363 0
M  V30 39 C 5.714654 6.451829 -15.997210 0
M  V30 40 C 9.506302 6.365347 -7.704944 0
M  V30 41 H 9.549295 0.566329 -16.785212 0
M  V30 42 H 8.766401 -0.762484 -15.911405 0
M  V30 43 H 9.322633 -1.002861 -17.548735 0
M  V30 44 H 6.923169 0.522739 -13.107685 0
M  V30 45 H 8.288352 0.571210 -14.227036 0
M  V30 46 H 5.783745 1.413176 -17.020754 0
M  V30 47 H 8.069659 4.793138 -7.348836 0
M  V30 48 H 10.173431 3.987381 -12.909552 0
M  V30 49 H 10.574629 4.389115 -11.377297 0
M  V30 50 H 9.155476 3.435822 -11.560646 0
M  V30 51 H 10.383367 8.622867 -11.120016 0
M  V30 52 H 11.688879 7.388269 -11.133318 0
M  V30 53 H 8.402921 1.454971 -18.992553 0
M  V30 54 H 8.011478 -0.157508 -19.530057 0
M  V30 55 H 6.723018 1.013996 -19.305270 0
M  V30 56 H 9.098517 4.330248 -14.439203 0
M  V30 57 H 5.735336 8.305121 -17.140719 0
M  V30 58 H 5.234812 8.505184 -15.475227 0
M  V30 59 H 6.934644 8.256778 -15.832144 0
M  V30 60 H 11.661749 8.344591 -4.511153 0
M  V30 61 H 11.597392 8.727615 -9.035938 0
M  V30 62 H 7.703161 4.333207 -9.745149 0
M  V30 63 H 7.962999 6.613314 -14.407210 0
M  V30 64 H 9.689257 5.989147 -15.851099 0
M  V30 65 H 9.675738 4.465470 -16.665574 0
M  V30 66 H 8.391201 5.627194 -16.967263 0
M  V30 67 H 9.272660 5.990055 -5.604293 0
M  V30 68 H 5.522814 6.627886 -13.881537 0
M  V30 69 H 6.620959 -1.381024 -16.703160 0
M  V30 70 H 8.021944 2.753547 -13.185402 0
M  V30 71 H 6.332930 2.800503 -13.584360 0
M  V30 72 H 10.611760 6.517614 -13.131006 0
M  V30 73 H 9.269917 7.598808 -12.786340 0
M  V30 74 H 7.245565 6.714397 -12.327879 0
M  V30 75 H 6.648646 3.879744 -11.623313 0
M  V30 76 H 6.256882 5.400055 -10.811022 0
M  V30 77 H 5.423041 4.999885 -12.192864 0
M  V30 78 H 6.288912 5.907403 -16.741577 0
M  V30 79 H 4.671595 6.245611 -16.241167 0
M  V30 END ATOM
M  V30 BEGIN BOND
M  V30 1 2 5 2
M  V30 2 1 5 4
M  V30 3 1 6 5
M  V30 4 1 16 14
M  V30 5 1 18 3
M  V30 6 1 18 6
M  V30 7 1 18 13
M  V30 8 1 19 1
M  V30 9 1 21 10
M  V30 10 1 21 15
M  V30 11 2 21 20
M  V30 12 1 22 9 CFG=1
M  V30 13 1 22 20
M  V30 14 2 23 15
M  V30 15 2 24 1
M  V30 16 1 24 23
M  V30 17 2 25 8
M  V30 18 1 25 20
M  V30 19 1 26 6
M  V30 20 1 26 16
M  V30 21 2 27 26
M  V30 22 1 28 14
M  V30 23 1 29 14
M  V30 24 1 30 1
M  V30 25 1 31 7
M  V30 26 1 31 11
M  V30 27 1 31 12
M  V30 28 1 31 24
M  V30 29 1 32 28
M  V30 30 1 33 32
M  V30 31 1 34 18
M  V30 32 1 35 4
M  V30 33 1 35 16
M  V30 34 1 36 10
M  V30 35 1 36 22
M  V30 36 1 37 22
M  V30 37 1 37 28
M  V30 38 1 38 37
M  V30 39 1 39 17
M  V30 40 1 39 32
M  V30 41 1 40 8
M  V30 42 1 40 15
M  V30 43 2 40 30
M  V30 44 1 41 3
M  V30 45 1 42 3
M  V30 46 1 43 3
M  V30 47 1 44 4
M  V30 48 1 45 4
M  V30 49 1 6 46 CFG=3
M  V30 50 1 47 8
M  V30 51 1 48 9
M  V30 52 1 49 9
M  V30 53 1 50 9
M  V30 54 1 51 10
M  V30 55 1 52 10
M  V30 56 1 53 13
M  V30 57 1 54 13
M  V30 58 1 55 13
M  V30 59 1 14 56 CFG=1
M  V30 60 1 57 17
M  V30 61 1 58 17
M  V30 62 1 59 17
M  V30 63 1 60 19
M  V30 64 1 61 23
M  V30 65 1 62 25
M  V30 66 1 28 63 CFG=3
M  V30 67 1 64 29
M  V30 68 1 65 29
M  V30 69 1 66 29
M  V30 70 1 67 30
M  V30 71 1 32 68 CFG=1
M  V30 72 1 69 34
M  V30 73 1 70 35
M  V30 74 1 71 35
M  V30 75 1 72 36
M  V30 76 1 73 36
M  V30 77 1 37 74 CFG=1
M  V30 78 1 75 38
M  V30 79 1 76 38
M  V30 80 1 77 38
M  V30 81 1 78 39
M  V30 82 1 79 39
M  V30 END BOND
M  V30 END CTAB
M  END
>  <i_epik_Tot_Q>  (1) 
0

>  <i_epik_Tot_abs_Q>  (1) 
0

>  <i_i_glide_confnum>  (1) 
172

>  <i_i_glide_lignum>  (1) 
165

>  <i_i_glide_posenum>  (1) 
23

>  <i_i_glide_rotatable_bonds>  (1) 
10

>  <i_lp_mmshare_version>  (1) 
72125

>  <i_m_source_file_index>  (1) 
90

>  <i_f3d_flags>  (1) 
0

>  <num_sample>  (1) 
100

>  <b_lp_Chiralities_Consistent>  (1) 
1

>  <r_epik_Charging_Adjusted_Penalty>  (1) 
0

>  <r_epik_Ionization_Penalty>  (1) 
0.063976020685543381

>  <r_epik_Ionization_Penalty_Charging>  (1) 
0

>  <r_epik_Ionization_Penalty_Neutral>  (1) 
0.063976020685543381

>  <r_epik_State_Penalty>  (1) 
-0

>  <r_glide_ring_energy>  (1) 
0

>  <r_i_docking_score>  (1) 
-5.3216272536085807

>  <r_i_glide_ecoul>  (1) 
-0.48095485453274711

>  <r_i_glide_eff_state_penalty>  (1) 
-0

>  <r_i_glide_einternal>  (1) 
10.877038347548105

>  <r_i_glide_emodel>  (1) 
-23.721524338462103

>  <r_i_glide_emodel_strain>  (1) 
6.0429930075357134

>  <r_i_glide_energy>  (1) 
-29.016958958421302

>  <r_i_glide_erotb>  (1) 
0.30496708774431369

>  <r_i_glide_esite>  (1) 
0

>  <r_i_glide_evdw>  (1) 
-28.536004103888555

>  <r_i_glide_gscore>  (1) 
-5.3216272536085807

>  <r_i_glide_gscore_strain>  (1) 
0.51074825188392836

>  <r_i_glide_hbond>  (1) 
0

>  <r_i_glide_ligand_efficiency>  (1) 
-0.13304068134021452

>  <r_i_glide_ligand_efficiency_ln>  (1) 
-1.1349464846957162

>  <r_i_glide_ligand_efficiency_sa>  (1) 
-0.45499273004249224

>  <r_i_glide_lipo>  (1) 
-2.6485358247799025

>  <r_i_glide_metal>  (1) 
-0

>  <r_i_glide_rewards>  (1) 
-1.989863335082581

>  <r_lp_Energy>  (1) 
56.555591

>  <r_lp_tautomer_probability>  (1) 
1

>  <s_epik_cmdline>  (1) 
J2VwaWtfcHl0aG9uJywgJy1waHQnLCAnMS4wJywgJy1waCcsICc3LjQnLCAnLXRuJywgJzgnLCAnLW1hJywgJzUwMCcsICctaW1hZScsICc8aW5maWxlLm1hZT4nLCAnLW9tYWUnLCAnPG91dGZpbGUubWFlPic=

>  <s_epik_input>  (1) 
RkMoRikoRiljKFtjSF0xKWMoW09IXSlbY0hdYzJbY0hdW2NIXWMoYzNjMTIpW0NAXShbQ0gzXSkoW0NIMl1bQ0gyXTMpW0NASF0oW0NIM10pW0NASF0oW0NASF0oRilbQ0gyXVtDSDNdKVtDQEhdKFtDSDNdKU4oW0NIMl1bQ0gyXUM0PU8pQyg9TylbQ0BASF00QyhbQ0gzXSkoW0NIM10pW09IXQ==

>  <s_glide_docking_method>  (1) 
confgen

>  <s_i_glide_gridfile>  (1) 
gpcr_drd2_6luq_protein_autoprepared_prepared

>  <s_lp_Force_Field>  (1) 
S-OPLS

>  <s_lp_Variant>  (1) 
DiffSBDD_89-2

>  <s_m_source_file>  (1) 
generated_generic_title2_ligand_DiffSBDD_2026-06-23_prepared.sdf

>  <GenAI_Model>  (1) 
DiffSBDD

>  <Protein>  (1) 
generic_title2

$$$$
DiffSBDD_18
     RDKit          3D

  0  0  0  0  0  0  0  0  0  0999 V3000
M  V30 BEGIN CTAB
M  V30 COUNTS 38 39 0 0 1
M  V30 BEGIN ATOM
M  V30 1 C 11.531723 9.009643 -4.702414 0
M  V30 2 C 12.175029 9.045348 -3.448933 0
M  V30 3 O 10.051300 8.790239 -7.129019 0
M  V30 4 S 10.322193 7.349519 -9.788905 0
M  V30 5 C 6.395606 7.579292 -15.259208 0
M  V30 6 C 9.610731 6.601427 -11.281689 0
M  V30 7 N 8.245330 6.390114 -11.185351 0
M  V30 8 C 6.037615 6.368201 -14.389622 0
M  V30 9 C 10.421500 7.749070 -6.599671 0
M  V30 10 C 6.002907 5.472442 -11.959641 0 CFG=2
M  V30 11 C 11.372358 6.572881 -4.544888 0
M  V30 12 C 7.459220 5.791162 -12.221937 0 CFG=1
M  V30 13 N 10.246109 6.531890 -7.152185 0
M  V30 14 C 11.125028 7.772934 -5.259013 0
M  V30 15 C 12.006361 6.620254 -3.285193 0
M  V30 16 C 12.409180 7.852390 -2.741324 0
M  V30 17 O 10.313894 6.335345 -12.253609 0
M  V30 18 C 9.578428 6.332081 -8.451917 0
M  V30 19 C 6.349482 6.578216 -12.917883 0 CFG=1
M  V30 20 O 5.418514 5.989622 -10.784967 0
M  V30 21 H 11.349737 9.930109 -5.237896 0
M  V30 22 H 12.484535 9.990227 -3.028210 0
M  V30 23 H 6.413103 7.307120 -16.314274 0
M  V30 24 H 5.672125 8.388928 -15.149754 0
M  V30 25 H 7.376608 7.972881 -14.992798 0
M  V30 26 H 7.789539 6.702197 -10.328604 0
M  V30 27 H 6.582877 5.490791 -14.739547 0
M  V30 28 H 4.978745 6.132092 -14.499688 0
M  V30 29 H 5.561625 4.550230 -12.334675 0
M  V30 30 H 11.066748 5.619045 -4.951222 0
M  V30 31 H 7.983012 5.060363 -12.836943 0
M  V30 32 H 10.575734 5.715723 -6.661247 0
M  V30 33 H 12.186269 5.705966 -2.738326 0
M  V30 34 H 12.897202 7.882388 -1.778776 0
M  V30 35 H 8.519063 6.541437 -8.353247 0
M  V30 36 H 9.671896 5.279464 -8.721744 0
M  V30 37 H 6.166878 7.592881 -12.568885 0
M  V30 38 H 5.960582 6.690655 -10.430469 0
M  V30 END ATOM
M  V30 BEGIN BOND
M  V30 1 1 2 1
M  V30 2 1 6 4
M  V30 3 1 7 6
M  V30 4 1 8 5
M  V30 5 2 9 3
M  V30 6 1 12 7
M  V30 7 1 12 10
M  V30 8 1 13 9
M  V30 9 2 14 1
M  V30 10 1 14 9
M  V30 11 1 14 11
M  V30 12 2 15 11
M  V30 13 2 16 2
M  V30 14 1 16 15
M  V30 15 2 17 6
M  V30 16 1 18 4
M  V30 17 1 18 13
M  V30 18 1 19 8
M  V30 19 1 19 10
M  V30 20 1 19 12
M  V30 21 1 20 10
M  V30 22 1 21 1
M  V30 23 1 22 2
M  V30 24 1 23 5
M  V30 25 1 24 5
M  V30 26 1 25 5
M  V30 27 1 26 7
M  V30 28 1 27 8
M  V30 29 1 28 8
M  V30 30 1 10 29 CFG=3
M  V30 31 1 30 11
M  V30 32 1 12 31 CFG=3
M  V30 33 1 32 13
M  V30 34 1 33 15
M  V30 35 1 34 16
M  V30 36 1 35 18
M  V30 37 1 36 18
M  V30 38 1 19 37 CFG=1
M  V30 39 1 38 20
M  V30 END BOND
M  V30 END CTAB
M  END
>  <i_epik_Tot_Q>  (1) 
0

>  <i_epik_Tot_abs_Q>  (1) 
0

>  <i_i_glide_confnum>  (1) 
13

>  <i_i_glide_lignum>  (1) 
35

>  <i_i_glide_posenum>  (1) 
272

>  <i_i_glide_rotatable_bonds>  (1) 
9

>  <i_lp_mmshare_version>  (1) 
72125

>  <i_m_source_file_index>  (1) 
19

>  <i_f3d_flags>  (1) 
0

>  <num_sample>  (1) 
100

>  <b_lp_Chiralities_Consistent>  (1) 
1

>  <r_epik_Charging_Adjusted_Penalty>  (1) 
0

>  <r_epik_Ionization_Penalty>  (1) 
2.0525633642560989e-05

>  <r_epik_Ionization_Penalty_Charging>  (1) 
0

>  <r_epik_Ionization_Penalty_Neutral>  (1) 
2.0525633642560989e-05

>  <r_epik_State_Penalty>  (1) 
-0

>  <r_glide_ring_energy>  (1) 
0

>  <r_i_docking_score>  (1) 
-5.3201696722772835

>  <r_i_glide_ecoul>  (1) 
-8.7359020068853575

>  <r_i_glide_eff_state_penalty>  (1) 
-0

>  <r_i_glide_einternal>  (1) 
8.4824907186670462

>  <r_i_glide_emodel>  (1) 
-51.899994321453114

>  <r_i_glide_emodel_strain>  (1) 
2.3007386139220998

>  <r_i_glide_energy>  (1) 
-42.879564575929749

>  <r_i_glide_erotb>  (1) 
2.5324251451788915

>  <r_i_glide_esite>  (1) 
-0.14653200941381603

>  <r_i_glide_evdw>  (1) 
-34.143662569044395

>  <r_i_glide_gscore>  (1) 
-5.3201696722772835

>  <r_i_glide_gscore_strain>  (1) 
0

>  <r_i_glide_hbond>  (1) 
-0.30399999999999999

>  <r_i_glide_ligand_efficiency>  (1) 
-0.2660084836138642

>  <r_i_glide_ligand_efficiency_ln>  (1) 
-1.3314629980314663

>  <r_i_glide_ligand_efficiency_sa>  (1) 
-0.72205811408517051

>  <r_i_glide_lipo>  (1) 
-2.3271624675807367

>  <r_i_glide_metal>  (1) 
-0

>  <r_i_glide_rewards>  (1) 
-2.0573319109765973

>  <r_lp_Energy>  (1) 
17.985703999999998

>  <r_lp_tautomer_probability>  (1) 
1

>  <s_epik_Chemistry_Notes>  (1) 
This compound contains an acetal/aminal-like group ( X-CH(R)-Y where X, Y are N, S, or O) that may be acid/base labile, releasing an aldehyde.

>  <s_epik_cmdline>  (1) 
J2VwaWtfcHl0aG9uJywgJy1waHQnLCAnMS4wJywgJy1waCcsICc3LjQnLCAnLXRuJywgJzgnLCAnLW1hJywgJzUwMCcsICctaW1hZScsICc8aW5maWxlLm1hZT4nLCAnLW9tYWUnLCAnPG91dGZpbGUubWFlPic=

>  <s_epik_input>  (1) 
W2NIXTFbY0hdW2NIXVtjSF1bY0hdYzFDKD1PKVtOSF1bQ0gyXVNDKD1PKVtOSF1bQ0BASF0oW0NIXTJbT0hdKVtDQEhdMltDSDJdW0NIM10=

>  <s_glide_docking_method>  (1) 
confgen

>  <s_i_glide_gridfile>  (1) 
gpcr_drd2_6luq_protein_autoprepared_prepared

>  <s_lp_Force_Field>  (1) 
S-OPLS

>  <s_lp_Variant>  (1) 
DiffSBDD_18-2

>  <s_m_source_file>  (1) 
generated_generic_title2_ligand_DiffSBDD_2026-06-23_prepared.sdf

>  <GenAI_Model>  (1) 
DiffSBDD

>  <Protein>  (1) 
generic_title2

$$$$
DiffSBDD_65
     RDKit          3D

  0  0  0  0  0  0  0  0  0  0999 V3000
M  V30 BEGIN CTAB
M  V30 COUNTS 66 68 0 0 1
M  V30 BEGIN ATOM
M  V30 1 C 10.048351 7.022107 -9.709394 0 CFG=2
M  V30 2 N 9.407486 4.790296 -14.939793 0
M  V30 3 C 10.367926 7.079118 -8.188565 0
M  V30 4 C 6.653437 4.639677 -18.655659 0
M  V30 5 C 5.435246 8.553011 -20.019686 0
M  V30 6 C 5.836283 6.463035 -20.021249 0 CFG=1
M  V30 7 O 9.375423 8.197359 -10.135143 0
M  V30 8 O 10.608823 4.726348 -16.872003 0
M  V30 9 O 7.759482 4.327532 -17.868347 0
M  V30 10 O 8.101697 5.590214 -9.363080 0
M  V30 11 C 9.293018 5.725984 -10.100503 0 CFG=1
M  V30 12 C 4.765442 5.607381 -20.735402 0
M  V30 13 C 11.259712 8.253973 -7.743482 0
M  V30 14 O 7.636963 6.965627 -22.717620 0
M  V30 15 C 4.057428 7.336954 -18.169289 0
M  V30 16 C 8.167939 5.073419 -14.577841 0
M  V30 17 F 10.975533 5.953314 -7.817376 0
M  V30 18 C 9.286450 3.382843 -12.206692 0
M  V30 19 C 8.194058 5.371001 -17.000301 0 CFG=1
M  V30 20 C 8.413067 4.626495 -12.048940 0 CFG=2
M  V30 21 C 7.613601 5.038565 -13.280404 0
M  V30 22 N 6.316701 5.364150 -13.059022 0
M  V30 23 O 9.105249 5.741268 -11.487396 0
M  V30 24 C 5.284087 4.663304 -21.833779 0
M  V30 25 F 9.243392 7.172623 -7.477824 0
M  V30 26 C 6.106403 5.780642 -15.469502 0
M  V30 27 C 5.366854 7.474527 -18.935804 0 CFG=2
M  V30 28 C 7.436967 5.419807 -15.642231 0
M  V30 29 C 6.597066 7.798966 -22.251137 0
M  V30 30 O 12.454077 8.358818 -8.494557 0
M  V30 31 C 9.560128 4.920495 -16.262139 0
M  V30 32 O 6.932126 5.671520 -19.550205 0
M  V30 33 C 5.588599 5.736280 -14.150976 0
M  V30 34 C 6.474574 7.690913 -20.734388 0 CFG=1
M  V30 35 H 10.988616 6.998273 -10.257559 0
M  V30 36 H 10.128924 4.520614 -14.283929 0
M  V30 37 H 6.398717 3.745310 -19.222982 0
M  V30 38 H 5.797688 4.874768 -18.031725 0
M  V30 39 H 5.775441 9.528949 -19.676496 0
M  V30 40 H 4.507674 8.647037 -20.587066 0
M  V30 41 H 8.423242 8.101606 -9.985021 0
M  V30 42 H 7.655179 6.447315 -9.345676 0
M  V30 43 H 9.888130 4.851134 -9.848191 0
M  V30 44 H 4.223706 5.008064 -20.003593 0
M  V30 45 H 4.019879 6.260972 -21.185018 0
M  V30 46 H 11.518297 8.146940 -6.689025 0
M  V30 47 H 10.714104 9.190220 -7.834034 0
M  V30 48 H 8.439068 7.204448 -22.277749 0
M  V30 49 H 3.229701 7.780433 -18.718498 0
M  V30 50 H 3.810506 6.304026 -17.946695 0
M  V30 51 H 4.108575 7.867401 -17.218433 0
M  V30 52 H 8.738608 2.569215 -12.682199 0
M  V30 53 H 10.175423 3.590364 -12.785039 0
M  V30 54 H 9.604593 3.029800 -11.230160 0
M  V30 55 H 8.289092 6.328783 -17.513486 0
M  V30 56 H 7.636715 4.307398 -11.352067 0
M  V30 57 H 4.478355 4.025835 -22.195997 0
M  V30 58 H 5.670563 5.201078 -22.696300 0
M  V30 59 H 6.076227 4.009077 -21.473359 0
M  V30 60 H 5.491108 6.075196 -16.298964 0
M  V30 61 H 6.183994 7.590043 -18.223740 0
M  V30 62 H 5.662478 7.537177 -22.746721 0
M  V30 63 H 6.826215 8.825512 -22.539100 0
M  V30 64 H 12.242261 8.708161 -9.347485 0
M  V30 65 H 4.575389 5.991095 -13.965555 0
M  V30 66 H 7.443689 7.906240 -20.274495 0
M  V30 END ATOM
M  V30 BEGIN BOND
M  V30 1 1 3 1
M  V30 2 1 7 1
M  V30 3 1 9 4
M  V30 4 1 11 1
M  V30 5 1 11 10
M  V30 6 1 12 6
M  V30 7 1 13 3
M  V30 8 1 16 2
M  V30 9 1 17 3
M  V30 10 1 19 9
M  V30 11 1 20 18
M  V30 12 1 21 16
M  V30 13 1 21 20
M  V30 14 2 22 21
M  V30 15 1 23 11
M  V30 16 1 23 20
M  V30 17 1 24 12
M  V30 18 1 25 3
M  V30 19 1 27 5
M  V30 20 1 27 6
M  V30 21 1 27 15
M  V30 22 2 28 16
M  V30 23 1 28 19
M  V30 24 1 28 26
M  V30 25 1 29 14
M  V30 26 1 30 13
M  V30 27 1 31 2
M  V30 28 2 31 8
M  V30 29 1 31 19
M  V30 30 1 32 4
M  V30 31 1 6 32 CFG=1
M  V30 32 1 33 22
M  V30 33 2 33 26
M  V30 34 1 34 5
M  V30 35 1 34 6
M  V30 36 1 34 29
M  V30 37 1 1 35 CFG=3
M  V30 38 1 36 2
M  V30 39 1 37 4
M  V30 40 1 38 4
M  V30 41 1 39 5
M  V30 42 1 40 5
M  V30 43 1 41 7
M  V30 44 1 42 10
M  V30 45 1 11 43 CFG=3
M  V30 46 1 44 12
M  V30 47 1 45 12
M  V30 48 1 46 13
M  V30 49 1 47 13
M  V30 50 1 48 14
M  V30 51 1 49 15
M  V30 52 1 50 15
M  V30 53 1 51 15
M  V30 54 1 52 18
M  V30 55 1 53 18
M  V30 56 1 54 18
M  V30 57 1 19 55 CFG=3
M  V30 58 1 20 56 CFG=1
M  V30 59 1 57 24
M  V30 60 1 58 24
M  V30 61 1 59 24
M  V30 62 1 60 26
M  V30 63 1 27 61 CFG=1
M  V30 64 1 62 29
M  V30 65 1 63 29
M  V30 66 1 64 30
M  V30 67 1 65 33
M  V30 68 1 34 66 CFG=1
M  V30 END BOND
M  V30 END CTAB
M  END
>  <i_epik_Tot_Q>  (1) 
0

>  <i_epik_Tot_abs_Q>  (1) 
0

>  <i_i_glide_confnum>  (1) 
881

>  <i_i_glide_lignum>  (1) 
107

>  <i_i_glide_posenum>  (1) 
23

>  <i_i_glide_rotatable_bonds>  (1) 
16

>  <i_lp_mmshare_version>  (1) 
72125

>  <i_m_source_file_index>  (1) 
66

>  <i_f3d_flags>  (1) 
0

>  <num_sample>  (1) 
100

>  <b_lp_Chiralities_Consistent>  (1) 
1

>  <r_epik_Charging_Adjusted_Penalty>  (1) 
0

>  <r_epik_Ionization_Penalty>  (1) 
0.020984920231991385

>  <r_epik_Ionization_Penalty_Charging>  (1) 
0

>  <r_epik_Ionization_Penalty_Neutral>  (1) 
0.020984920231991385

>  <r_epik_State_Penalty>  (1) 
-0

>  <r_glide_ring_energy>  (1) 
0

>  <r_i_docking_score>  (1) 
-5.3177793981819983

>  <r_i_glide_ecoul>  (1) 
-11.218035856435655

>  <r_i_glide_eff_state_penalty>  (1) 
-0

>  <r_i_glide_einternal>  (1) 
16.784312056552579

>  <r_i_glide_emodel>  (1) 
-39.169605183754726

>  <r_i_glide_emodel_strain>  (1) 
2.092220728578468

>  <r_i_glide_energy>  (1) 
-38.711089575042749

>  <r_i_glide_erotb>  (1) 
0.93044466926125857

>  <r_i_glide_esite>  (1) 
-0.1572052188489699

>  <r_i_glide_evdw>  (1) 
-27.49305371860709

>  <r_i_glide_gscore>  (1) 
-5.3177793981819983

>  <r_i_glide_gscore_strain>  (1) 
0

>  <r_i_glide_hbond>  (1) 
-0.28302166805220419

>  <r_i_glide_ligand_efficiency>  (1) 
-0.1564052764171176

>  <r_i_glide_ligand_efficiency_ln>  (1) 
-1.1748466277181819

>  <r_i_glide_ligand_efficiency_sa>  (1) 
-0.50669237926296107

>  <r_i_glide_lipo>  (1) 
-2.2448732370890907

>  <r_i_glide_metal>  (1) 
-0

>  <r_i_glide_rewards>  (1) 
-0.50576587905728887

>  <r_lp_Energy>  (1) 
34.219946999999998

>  <r_lp_tautomer_probability>  (1) 
1

>  <s_epik_Chemistry_Notes>  (1) 
This compound contains an acetal/aminal-like group ( X-CH(R)-Y where X, Y are N, S, or O) that may be acid/base labile, releasing an aldehyde.

>  <s_epik_cmdline>  (1) 
J2VwaWtfcHl0aG9uJywgJy1waHQnLCAnMS4wJywgJy1waCcsICc3LjQnLCAnLXRuJywgJzgnLCAnLW1hJywgJzUwMCcsICctaW1hZScsICc8aW5maWxlLm1hZT4nLCAnLW9tYWUnLCAnPG91dGZpbGUubWFlPic=

>  <s_epik_input>  (1) 
W09IXVtDSDJdQyhGKShGKVtDQEhdKFtPSF0pW0NAQEhdKFtPSF0pT1tDQEhdKFtDSDNdKWMxbltjSF1bY0hdYyhjMTIpW0NASF0oQyg9TylbTkhdMilPW0NIMl1PW0NAQF0zKFtDSDJdW0NIM10pW0NASF0oW0NIM10pW0NIMl1bQ0BASF0zW0NIMl1bT0hd

>  <s_glide_docking_method>  (1) 
confgen

>  <s_i_glide_gridfile>  (1) 
gpcr_drd2_6luq_protein_autoprepared_prepared

>  <s_lp_Force_Field>  (1) 
S-OPLS

>  <s_lp_Variant>  (1) 
DiffSBDD_65-2

>  <s_m_source_file>  (1) 
generated_generic_title2_ligand_DiffSBDD_2026-06-23_prepared.sdf

>  <GenAI_Model>  (1) 
DiffSBDD

>  <Protein>  (1) 
generic_title2

$$$$
DiffSBDD_65
     RDKit          3D

  0  0  0  0  0  0  0  0  0  0999 V3000
M  V30 BEGIN CTAB
M  V30 COUNTS 66 68 0 0 1
M  V30 BEGIN ATOM
M  V30 1 C 10.097130 7.027746 -8.531438 0 CFG=2
M  V30 2 N 9.231232 4.871826 -14.806288 0
M  V30 3 C 10.208444 6.440804 -7.111247 0
M  V30 4 C 5.864095 6.095125 -17.803507 0
M  V30 5 C 7.320907 5.276246 -21.373961 0
M  V30 6 C 6.438662 6.745382 -20.128463 0 CFG=1
M  V30 7 O 9.375408 8.238017 -8.535690 0
M  V30 8 O 9.371909 3.980747 -16.892490 0
M  V30 9 O 7.127035 5.990216 -17.234810 0
M  V30 10 O 8.250254 5.590218 -9.376725 0
M  V30 11 C 9.580112 6.010065 -9.584937 0 CFG=1
M  V30 12 C 6.446251 8.113964 -20.846392 0
M  V30 13 C 10.739463 7.446971 -6.076042 0
M  V30 14 O 4.575382 4.392951 -22.543301 0
M  V30 15 C 9.116410 6.696521 -20.036202 0
M  V30 16 C 8.321268 5.509165 -14.083568 0
M  V30 17 F 11.084811 5.442682 -7.185052 0
M  V30 18 C 10.975331 6.520365 -12.709217 0
M  V30 19 C 7.214234 5.030735 -16.192222 0 CFG=2
M  V30 20 C 9.777145 5.872876 -12.002440 0 CFG=2
M  V30 21 C 8.465134 6.014849 -12.784337 0
M  V30 22 N 7.444750 6.667580 -12.161012 0
M  V30 23 O 9.775369 6.635946 -10.805886 0
M  V30 24 C 5.099818 8.857313 -20.857419 0
M  V30 25 F 9.023629 5.989877 -6.700517 0
M  V30 26 C 6.094360 6.291025 -14.185370 0
M  V30 27 C 7.784513 5.962618 -20.087993 0 CFG=2
M  V30 28 C 7.182552 5.641158 -14.769161 0
M  V30 29 C 4.776539 5.650087 -21.938235 0
M  V30 30 O 10.975442 6.790248 -4.847213 0
M  V30 31 C 8.745834 4.559460 -16.007992 0
M  V30 32 O 5.831505 7.015734 -18.850844 0
M  V30 33 C 6.271053 6.791580 -12.865015 0
M  V30 34 C 5.878335 5.514974 -20.898152 0 CFG=1
M  V30 35 H 11.108747 7.294996 -8.840968 0
M  V30 36 H 10.165902 4.675823 -14.473604 0
M  V30 37 H 5.497699 5.124464 -18.129120 0
M  V30 38 H 5.177895 6.467433 -17.043579 0
M  V30 39 H 7.603989 4.226510 -21.456459 0
M  V30 40 H 7.579293 5.827523 -22.279721 0
M  V30 41 H 8.465492 8.043606 -8.785066 0
M  V30 42 H 7.678159 6.350079 -9.487557 0
M  V30 43 H 10.175408 5.103011 -9.539623 0
M  V30 44 H 7.181401 8.770453 -20.385038 0
M  V30 45 H 6.782438 7.998461 -21.876420 0
M  V30 46 H 10.018445 8.249922 -5.916146 0
M  V30 47 H 11.667913 7.905794 -6.417302 0
M  V30 48 H 5.380512 4.131591 -22.965066 0
M  V30 49 H 9.201885 7.447263 -20.821881 0
M  V30 50 H 9.239798 7.196437 -19.076004 0
M  V30 51 H 9.948740 6.002255 -20.151412 0
M  V30 52 H 11.160481 6.129910 -13.705863 0
M  V30 53 H 10.807796 7.590235 -12.785169 0
M  V30 54 H 11.890283 6.390101 -12.134281 0
M  V30 55 H 6.575420 4.158172 -16.297671 0
M  V30 56 H 9.980422 4.816642 -11.817619 0
M  V30 57 H 5.185641 9.792504 -21.410209 0
M  V30 58 H 4.307879 8.276257 -21.323624 0
M  V30 59 H 4.774786 9.108725 -19.848768 0
M  V30 60 H 5.160935 6.411340 -14.711657 0
M  V30 61 H 7.783895 5.177690 -19.332011 0
M  V30 62 H 3.841507 5.970836 -21.481150 0
M  V30 63 H 5.035945 6.377322 -22.707599 0
M  V30 64 H 10.247594 6.204326 -4.692540 0
M  V30 65 H 5.464261 7.305975 -12.363577 0
M  V30 66 H 5.620525 4.713869 -20.205903 0
M  V30 END ATOM
M  V30 BEGIN BOND
M  V30 1 1 3 1
M  V30 2 1 7 1
M  V30 3 1 9 4
M  V30 4 1 11 1
M  V30 5 1 11 10
M  V30 6 1 12 6
M  V30 7 1 13 3
M  V30 8 1 16 2
M  V30 9 1 17 3
M  V30 10 1 19 9
M  V30 11 1 20 18
M  V30 12 1 21 16
M  V30 13 1 21 20
M  V30 14 2 22 21
M  V30 15 1 23 11
M  V30 16 1 23 20
M  V30 17 1 24 12
M  V30 18 1 25 3
M  V30 19 1 27 5
M  V30 20 1 27 6
M  V30 21 1 27 15
M  V30 22 2 28 16
M  V30 23 1 28 19
M  V30 24 1 28 26
M  V30 25 1 29 14
M  V30 26 1 30 13
M  V30 27 1 31 2
M  V30 28 2 31 8
M  V30 29 1 31 19
M  V30 30 1 32 4
M  V30 31 1 6 32 CFG=1
M  V30 32 1 33 22
M  V30 33 2 33 26
M  V30 34 1 34 5
M  V30 35 1 34 6
M  V30 36 1 34 29
M  V30 37 1 1 35 CFG=3
M  V30 38 1 36 2
M  V30 39 1 37 4
M  V30 40 1 38 4
M  V30 41 1 39 5
M  V30 42 1 40 5
M  V30 43 1 41 7
M  V30 44 1 42 10
M  V30 45 1 11 43 CFG=3
M  V30 46 1 44 12
M  V30 47 1 45 12
M  V30 48 1 46 13
M  V30 49 1 47 13
M  V30 50 1 48 14
M  V30 51 1 49 15
M  V30 52 1 50 15
M  V30 53 1 51 15
M  V30 54 1 52 18
M  V30 55 1 53 18
M  V30 56 1 54 18
M  V30 57 1 19 55 CFG=1
M  V30 58 1 20 56 CFG=1
M  V30 59 1 57 24
M  V30 60 1 58 24
M  V30 61 1 59 24
M  V30 62 1 60 26
M  V30 63 1 27 61 CFG=1
M  V30 64 1 62 29
M  V30 65 1 63 29
M  V30 66 1 64 30
M  V30 67 1 65 33
M  V30 68 1 34 66 CFG=1
M  V30 END BOND
M  V30 END CTAB
M  END
>  <i_epik_Tot_Q>  (1) 
0

>  <i_epik_Tot_abs_Q>  (1) 
0

>  <i_i_glide_confnum>  (1) 
4015

>  <i_i_glide_lignum>  (1) 
106

>  <i_i_glide_posenum>  (1) 
327

>  <i_i_glide_rotatable_bonds>  (1) 
16

>  <i_lp_mmshare_version>  (1) 
72125

>  <i_m_source_file_index>  (1) 
66

>  <i_f3d_flags>  (1) 
0

>  <num_sample>  (1) 
100

>  <b_lp_Chiralities_Consistent>  (1) 
1

>  <r_epik_Charging_Adjusted_Penalty>  (1) 
0

>  <r_epik_Ionization_Penalty>  (1) 
0.020984920231991385

>  <r_epik_Ionization_Penalty_Charging>  (1) 
0

>  <r_epik_Ionization_Penalty_Neutral>  (1) 
0.020984920231991385

>  <r_epik_State_Penalty>  (1) 
-0

>  <r_glide_ring_energy>  (1) 
0

>  <r_i_docking_score>  (1) 
-5.3083979197410383

>  <r_i_glide_ecoul>  (1) 
-10.091313920189116

>  <r_i_glide_eff_state_penalty>  (1) 
-0

>  <r_i_glide_einternal>  (1) 
9.6961986588955646

>  <r_i_glide_emodel>  (1) 
-48.887039436548164

>  <r_i_glide_emodel_strain>  (1) 
1.8140471051874414

>  <r_i_glide_energy>  (1) 
-42.52596987576058

>  <r_i_glide_erotb>  (1) 
0.93044466926125857

>  <r_i_glide_esite>  (1) 
-0.10998092611369792

>  <r_i_glide_evdw>  (1) 
-32.434655955571465

>  <r_i_glide_gscore>  (1) 
-5.3083979197410383

>  <r_i_glide_gscore_strain>  (1) 
0

>  <r_i_glide_hbond>  (1) 
-0.40618559588964537

>  <r_i_glide_ligand_efficiency>  (1) 
-0.15612935058061878

>  <r_i_glide_ligand_efficiency_ln>  (1) 
-1.1727739959890169

>  <r_i_glide_ligand_efficiency_sa>  (1) 
-0.50579848666676208

>  <r_i_glide_lipo>  (1) 
-1.7955988689871505

>  <r_i_glide_metal>  (1) 
-0

>  <r_i_glide_rewards>  (1) 
-0.79164731220486173

>  <r_lp_Energy>  (1) 
35.882733000000002

>  <r_lp_tautomer_probability>  (1) 
1

>  <s_epik_Chemistry_Notes>  (1) 
This compound contains an acetal/aminal-like group ( X-CH(R)-Y where X, Y are N, S, or O) that may be acid/base labile, releasing an aldehyde.

>  <s_epik_cmdline>  (1) 
J2VwaWtfcHl0aG9uJywgJy1waHQnLCAnMS4wJywgJy1waCcsICc3LjQnLCAnLXRuJywgJzgnLCAnLW1hJywgJzUwMCcsICctaW1hZScsICc8aW5maWxlLm1hZT4nLCAnLW9tYWUnLCAnPG91dGZpbGUubWFlPic=

>  <s_epik_input>  (1) 
W09IXVtDSDJdQyhGKShGKVtDQEhdKFtPSF0pW0NAQEhdKFtPSF0pT1tDQEhdKFtDSDNdKWMxbltjSF1bY0hdYyhjMTIpW0NASF0oQyg9TylbTkhdMilPW0NIMl1PW0NAQF0zKFtDSDJdW0NIM10pW0NASF0oW0NIM10pW0NIMl1bQ0BASF0zW0NIMl1bT0hd

>  <s_glide_docking_method>  (1) 
confgen

>  <s_i_glide_gridfile>  (1) 
gpcr_drd2_6luq_protein_autoprepared_prepared

>  <s_lp_Force_Field>  (1) 
S-OPLS

>  <s_lp_Variant>  (1) 
DiffSBDD_65-1

>  <s_m_source_file>  (1) 
generated_generic_title2_ligand_DiffSBDD_2026-06-23_prepared.sdf

>  <GenAI_Model>  (1) 
DiffSBDD

>  <Protein>  (1) 
generic_title2

$$$$
DiffSBDD_16
     RDKit          3D

  0  0  0  0  0  0  0  0  0  0999 V3000
M  V30 BEGIN CTAB
M  V30 COUNTS 63 67 0 0 1
M  V30 BEGIN ATOM
M  V30 1 N 14.554904 6.568858 -19.672104 0
M  V30 2 C 9.349022 5.590228 -18.279163 0
M  V30 3 C 6.901755 5.632990 -14.677865 0 CFG=1
M  V30 4 C 5.850943 6.235611 -15.648551 0
M  V30 5 N 11.190077 4.410576 -16.937852 0
M  V30 6 N 15.863867 7.110373 -19.569736 0
M  V30 7 C 12.739501 4.370354 -16.941735 0
M  V30 8 C 11.870280 5.778415 -18.586966 0
M  V30 9 C 10.808859 5.219080 -17.879838 0
M  V30 10 C 6.937159 5.305005 -17.830319 0
M  V30 11 Cl 18.975426 6.592206 -18.728235 0
M  V30 12 C 17.487357 6.129204 -17.839980 0
M  V30 13 C 6.535321 4.793165 -10.785021 0
M  V30 14 O 9.127452 6.273848 -19.280576 0
M  V30 15 C 6.319027 5.540766 -13.232871 0 CFG=1
M  V30 16 C 16.314644 6.989137 -18.181894 0 CFG=2
M  V30 17 C 15.998842 5.196285 -16.557454 0
M  V30 18 N 9.848593 7.409335 -11.283104 0
M  V30 19 C 14.364662 5.663594 -18.540620 0 CFG=1
M  V30 20 C 15.235075 6.239299 -17.416291 0 CFG=2
M  V30 21 N 9.591674 5.590231 -12.646249 0 CHG=1
M  V30 22 C 7.252373 4.959497 -12.132855 0 CFG=1
M  V30 23 N 8.346260 5.092222 -17.457932 0
M  V30 24 O 5.968119 6.842029 -12.802008 0
M  V30 25 C 8.488831 5.807156 -11.984475 0
M  V30 26 C 8.575755 4.358088 -16.190186 0
M  V30 27 N 10.553133 6.546290 -12.297431 0
M  V30 28 N 17.375411 5.190232 -17.008619 0
M  V30 29 N 8.575412 6.836947 -11.185024 0
M  V30 30 C 12.955614 5.326316 -18.085489 0
M  V30 31 C 6.300960 6.497261 -17.097835 0
M  V30 32 C 7.391903 4.259642 -15.212389 0
M  V30 33 H 13.896940 7.343815 -19.605307 0
M  V30 34 H 7.751636 6.316352 -14.639238 0
M  V30 35 H 4.975418 5.590226 -15.670200 0
M  V30 36 H 5.491184 7.188873 -15.262042 0
M  V30 37 H 15.859090 8.084347 -19.868647 0
M  V30 38 H 13.152035 4.740647 -16.002470 0
M  V30 39 H 13.121223 3.372025 -17.159168 0
M  V30 40 H 11.732066 6.469445 -19.406092 0
M  V30 41 H 6.850967 5.486836 -18.902837 0
M  V30 42 H 6.363533 4.392115 -17.695532 0
M  V30 43 H 7.212083 4.390849 -10.031218 0
M  V30 44 H 6.145575 5.736132 -10.402092 0
M  V30 45 H 5.693201 4.105785 -10.868324 0
M  V30 46 H 5.407925 4.940741 -13.261381 0
M  V30 47 H 15.564869 4.199571 -16.640845 0
M  V30 48 H 15.959252 5.474384 -15.503046 0
M  V30 49 H 9.750796 8.353995 -11.651322 0
M  V30 50 H 14.807987 4.715390 -18.848900 0
M  V30 51 H 14.656563 6.927356 -16.796899 0
M  V30 52 H 7.570938 3.952517 -12.391188 0
M  V30 53 H 5.218347 7.141511 -13.294431 0
M  V30 54 H 9.315618 4.879232 -15.584936 0
M  V30 55 H 8.926857 3.348496 -16.410893 0
M  V30 56 H 10.775799 7.105146 -13.119382 0
M  V30 57 H 16.470542 7.983678 -17.763611 0
M  V30 58 H 7.809437 7.162077 -10.576059 0
M  V30 59 H 6.975409 7.346881 -17.134695 0
M  V30 60 H 5.421932 6.813228 -17.661016 0
M  V30 61 H 7.758308 3.632102 -14.407670 0
M  V30 62 H 6.575408 3.674371 -15.624871 0
M  V30 63 H 9.717258 4.829253 -13.301190 0
M  V30 END ATOM
M  V30 BEGIN BOND
M  V30 1 1 4 3
M  V30 2 1 6 1
M  V30 3 1 7 5
M  V30 4 1 9 2
M  V30 5 2 9 5
M  V30 6 1 9 8
M  V30 7 1 12 11
M  V30 8 2 14 2
M  V30 9 1 15 3
M  V30 10 1 16 6
M  V30 11 1 16 12
M  V30 12 1 19 1
M  V30 13 1 20 16
M  V30 14 1 20 17
M  V30 15 1 20 19
M  V30 16 1 22 13
M  V30 17 1 22 15
M  V30 18 1 23 2
M  V30 19 1 23 10
M  V30 20 1 24 15
M  V30 21 2 25 21
M  V30 22 1 25 22
M  V30 23 1 26 23
M  V30 24 1 27 18
M  V30 25 1 27 21
M  V30 26 2 28 12
M  V30 27 1 28 17
M  V30 28 1 29 18
M  V30 29 1 29 25
M  V30 30 1 30 7
M  V30 31 2 30 8
M  V30 32 1 30 19
M  V30 33 1 31 4
M  V30 34 1 31 10
M  V30 35 1 32 3
M  V30 36 1 32 26
M  V30 37 1 33 1
M  V30 38 1 3 34 CFG=1
M  V30 39 1 35 4
M  V30 40 1 36 4
M  V30 41 1 37 6
M  V30 42 1 38 7
M  V30 43 1 39 7
M  V30 44 1 40 8
M  V30 45 1 41 10
M  V30 46 1 42 10
M  V30 47 1 43 13
M  V30 48 1 44 13
M  V30 49 1 45 13
M  V30 50 1 15 46 CFG=3
M  V30 51 1 47 17
M  V30 52 1 48 17
M  V30 53 1 49 18
M  V30 54 1 19 50 CFG=3
M  V30 55 1 20 51 CFG=1
M  V30 56 1 22 52 CFG=3
M  V30 57 1 53 24
M  V30 58 1 54 26
M  V30 59 1 55 26
M  V30 60 1 56 27
M  V30 61 1 16 57 CFG=1
M  V30 62 1 58 29
M  V30 63 1 59 31
M  V30 64 1 60 31
M  V30 65 1 61 32
M  V30 66 1 62 32
M  V30 67 1 63 21
M  V30 END BOND
M  V30 END CTAB
M  END
>  <i_epik_Tot_Q>  (1) 
1

>  <i_epik_Tot_abs_Q>  (1) 
1

>  <i_i_glide_confnum>  (1) 
314

>  <i_i_glide_lignum>  (1) 
31

>  <i_i_glide_posenum>  (1) 
152

>  <i_i_glide_rotatable_bonds>  (1) 
7

>  <i_lp_mmshare_version>  (1) 
72125

>  <i_m_source_file_index>  (1) 
17

>  <i_f3d_flags>  (1) 
0

>  <num_sample>  (1) 
100

>  <b_lp_Chiralities_Consistent>  (1) 
1

>  <r_epik_Charging_Adjusted_Penalty>  (1) 
0.0018574901874323989

>  <r_epik_Ionization_Penalty>  (1) 
0.0019640421356001223

>  <r_epik_Ionization_Penalty_Charging>  (1) 
0.0018574901874323989

>  <r_epik_Ionization_Penalty_Neutral>  (1) 
0.00010655194816772327

>  <r_epik_State_Penalty>  (1) 
-0

>  <r_glide_ring_energy>  (1) 
0.16544429942790889

>  <r_i_docking_score>  (1) 
-5.306685397748061

>  <r_i_glide_ecoul>  (1) 
-9.3605057060132815

>  <r_i_glide_eff_state_penalty>  (1) 
-0

>  <r_i_glide_einternal>  (1) 
5.7174714344833824

>  <r_i_glide_emodel>  (1) 
-59.540709433907573

>  <r_i_glide_emodel_strain>  (1) 
0.065351322067272122

>  <r_i_glide_energy>  (1) 
-45.026159476054715

>  <r_i_glide_erotb>  (1) 
0.55955952450974478

>  <r_i_glide_esite>  (1) 
-0.11540840082475526

>  <r_i_glide_evdw>  (1) 
-35.66565377004143

>  <r_i_glide_gscore>  (1) 
-5.306685397748061

>  <r_i_glide_gscore_strain>  (1) 
0

>  <r_i_glide_hbond>  (1) 
-0.46135161816403469

>  <r_i_glide_ligand_efficiency>  (1) 
-0.16583391867962691

>  <r_i_glide_ligand_efficiency_ln>  (1) 
-1.188311515336389

>  <r_i_glide_ligand_efficiency_sa>  (1) 
-0.52648987392809732

>  <r_i_glide_lipo>  (1) 
-1.2108485355622158

>  <r_i_glide_metal>  (1) 
-0

>  <r_i_glide_rewards>  (1) 
-0.89127782330273553

>  <r_lp_Energy>  (1) 
1.743153

>  <r_lp_tautomer_probability>  (1) 
1

>  <s_epik_Chemistry_Notes>  (1) 
This compound has an imine and may undergo hydrolysis.

>  <s_epik_cmdline>  (1) 
J2VwaWtfcHl0aG9uJywgJy1waHQnLCAnMS4wJywgJy1waCcsICc3LjQnLCAnLXRuJywgJzgnLCAnLW1hJywgJzUwMCcsICctaW1hZScsICc8aW5maWxlLm1hZT4nLCAnLW9tYWUnLCAnPG91dGZpbGUubWFlPic=

>  <s_epik_input>  (1) 
Q2xDPTFbTkhdW0NIMl1bQ0BASF0oQzEyKVtDQEhdKFtOSF1bTkhdMilDKD1bQ0hdMylbQ0gyXU49QzNDKD1PKU4oW0NIMl1bQ0gyXTQpW0NIMl1bQ0gyXVtDSDJdW0NASF00W0NASF0oW09IXSlbQ0BIXShbQ0gzXSlDNT1OW05IXVtOSF1bTkhdNQ==

>  <s_glide_docking_method>  (1) 
confgen

>  <s_i_glide_gridfile>  (1) 
gpcr_drd2_6luq_protein_autoprepared_prepared

>  <s_lp_Force_Field>  (1) 
S-OPLS

>  <s_lp_Variant>  (1) 
DiffSBDD_16-1

>  <s_m_source_file>  (1) 
generated_generic_title2_ligand_DiffSBDD_2026-06-23_prepared.sdf

>  <GenAI_Model>  (1) 
DiffSBDD

>  <Protein>  (1) 
generic_title2

$$$$
DiffSBDD_59
     RDKit          3D

  0  0  0  0  0  0  0  0  0  0999 V3000
M  V30 BEGIN CTAB
M  V30 COUNTS 69 72 0 0 1
M  V30 BEGIN ATOM
M  V30 1 C 8.555447 1.641383 -17.279478 0 CFG=2
M  V30 2 C 5.727844 0.726040 -18.836694 0
M  V30 3 C 11.375410 7.779034 -5.338695 0
M  V30 4 P 8.217691 3.429368 -16.898344 0 CFG=2
M  V30 5 C 12.497824 9.190229 -3.764087 0
M  V30 6 O 8.975328 4.137297 -12.621531 0
M  V30 7 C 9.502203 6.957129 -11.648441 0
M  V30 8 C 9.845535 6.595740 -9.220693 0
M  V30 9 C 9.077864 1.559210 -18.728172 0
M  V30 10 C 9.634848 5.809261 -8.087080 0
M  V30 11 C 10.113501 6.216495 -6.837853 0
M  V30 12 C 8.893210 -1.344490 -16.685194 0
M  V30 13 N 9.375397 6.121039 -10.460917 0
M  V30 14 C 7.343944 0.722138 -16.969571 0 CFG=1
M  V30 15 O 4.975705 1.347049 -19.584987 0
M  V30 16 C 10.824024 7.419985 -6.679584 0
M  V30 17 O 7.485370 -1.020779 -18.595158 0
M  V30 18 C 9.878093 4.172567 -16.836687 0
M  V30 19 C 11.947137 9.026872 -5.044406 0
M  V30 20 C 5.165961 -1.757554 -18.881630 0
M  V30 21 O 6.171616 1.188498 -17.632949 0
M  V30 22 C 9.682810 5.259005 -15.781105 0 CFG=2
M  V30 23 C 8.469290 6.524334 -12.724415 0 CFG=1
M  V30 24 C 11.912651 7.074138 -3.228497 0
M  V30 25 O 10.917532 5.590228 -15.185032 0
M  V30 26 C 10.532591 7.830837 -9.093011 0
M  V30 27 C 8.701763 5.106021 -13.329711 0
M  V30 28 C 8.463718 4.926514 -14.850676 0 CFG=2
M  V30 29 C 11.017932 8.241958 -7.824289 0
M  V30 30 N 7.971843 3.603467 -15.227306 0
M  V30 31 O 7.273300 4.129108 -17.812550 0
M  V30 32 N 11.348547 6.793390 -4.406925 0
M  V30 33 N 12.488698 8.213250 -2.836098 0
M  V30 34 C 7.557082 -0.787926 -17.201517 0 CFG=1
M  V30 35 C 6.231651 -0.691291 -19.192626 0 CFG=1
M  V30 36 N 7.118334 6.515322 -12.119224 0 CHG=1
M  V30 37 H 9.375271 1.355275 -16.622946 0
M  V30 38 H 12.973376 10.108356 -3.482349 0
M  V30 39 H 10.519662 6.901835 -12.038526 0
M  V30 40 H 9.294893 7.999754 -11.406141 0
M  V30 41 H 9.398009 0.553433 -18.996110 0
M  V30 42 H 8.318292 1.871980 -19.444282 0
M  V30 43 H 9.940862 2.208586 -18.871684 0
M  V30 44 H 9.105853 4.871260 -8.175430 0
M  V30 45 H 9.945166 5.590228 -5.985073 0
M  V30 46 H 8.975483 -1.207043 -15.607340 0
M  V30 47 H 8.961301 -2.415932 -16.875308 0
M  V30 48 H 9.756369 -0.883217 -17.162645 0
M  V30 49 H 8.941539 5.210085 -10.530586 0
M  V30 50 H 7.140121 0.843157 -15.905207 0
M  V30 51 H 10.198149 4.547929 -17.808655 0
M  V30 52 H 10.597726 3.430930 -16.497103 0
M  V30 53 H 11.985247 9.820781 -5.772685 0
M  V30 54 H 4.260344 -1.581812 -19.463311 0
M  V30 55 H 5.528830 -2.753544 -19.135711 0
M  V30 56 H 4.875825 -1.766369 -17.831029 0
M  V30 57 H 9.399148 6.136402 -16.348026 0
M  V30 58 H 8.465617 7.260037 -13.526197 0
M  V30 59 H 11.894129 6.279597 -2.496926 0
M  V30 60 H 11.262378 4.865832 -14.661702 0
M  V30 61 H 10.706042 8.453811 -9.955256 0
M  V30 62 H 7.683982 5.639324 -15.122450 0
M  V30 63 H 11.557658 9.171238 -7.738424 0
M  V30 64 H 8.423879 2.896438 -14.650394 0
M  V30 65 H 6.758921 -1.337094 -16.702142 0
M  V30 66 H 6.401649 -0.704216 -20.269459 0
M  V30 67 H 6.401531 6.564394 -12.827068 0
M  V30 68 H 7.016002 5.663536 -11.588039 0
M  V30 69 H 7.026037 7.279884 -11.454416 0
M  V30 END ATOM
M  V30 BEGIN BOND
M  V30 1 1 4 1
M  V30 2 1 9 1
M  V30 3 1 10 8
M  V30 4 2 11 10
M  V30 5 1 13 7
M  V30 6 1 13 8
M  V30 7 1 14 1
M  V30 8 2 15 2
M  V30 9 1 16 3
M  V30 10 1 16 11
M  V30 11 1 18 4
M  V30 12 1 19 3
M  V30 13 2 19 5
M  V30 14 1 21 2
M  V30 15 1 21 14
M  V30 16 1 22 18
M  V30 17 1 23 7
M  V30 18 1 25 22
M  V30 19 2 26 8
M  V30 20 2 27 6
M  V30 21 1 27 23
M  V30 22 1 28 22
M  V30 23 1 28 27
M  V30 24 2 29 16
M  V30 25 1 29 26
M  V30 26 1 4 30 CFG=1
M  V30 27 1 30 28
M  V30 28 2 31 4
M  V30 29 2 32 3
M  V30 30 1 32 24
M  V30 31 1 33 5
M  V30 32 2 33 24
M  V30 33 1 34 12
M  V30 34 1 34 14
M  V30 35 1 34 17
M  V30 36 1 35 2
M  V30 37 1 35 17
M  V30 38 1 35 20
M  V30 39 1 36 23
M  V30 40 1 1 37 CFG=1
M  V30 41 1 38 5
M  V30 42 1 39 7
M  V30 43 1 40 7
M  V30 44 1 41 9
M  V30 45 1 42 9
M  V30 46 1 43 9
M  V30 47 1 44 10
M  V30 48 1 45 11
M  V30 49 1 46 12
M  V30 50 1 47 12
M  V30 51 1 48 12
M  V30 52 1 49 13
M  V30 53 1 14 50 CFG=1
M  V30 54 1 51 18
M  V30 55 1 52 18
M  V30 56 1 53 19
M  V30 57 1 54 20
M  V30 58 1 55 20
M  V30 59 1 56 20
M  V30 60 1 22 57 CFG=3
M  V30 61 1 23 58 CFG=3
M  V30 62 1 59 24
M  V30 63 1 60 25
M  V30 64 1 61 26
M  V30 65 1 28 62 CFG=3
M  V30 66 1 63 29
M  V30 67 1 64 30
M  V30 68 1 34 65 CFG=1
M  V30 69 1 35 66 CFG=3
M  V30 70 1 67 36
M  V30 71 1 68 36
M  V30 72 1 69 36
M  V30 END BOND
M  V30 END CTAB
M  END
>  <i_epik_Tot_Q>  (1) 
1

>  <i_epik_Tot_abs_Q>  (1) 
1

>  <i_i_glide_confnum>  (1) 
404

>  <i_i_glide_lignum>  (1) 
94

>  <i_i_glide_posenum>  (1) 
35

>  <i_i_glide_rotatable_bonds>  (1) 
9

>  <i_lp_mmshare_version>  (1) 
72125

>  <i_m_source_file_index>  (1) 
60

>  <i_f3d_flags>  (1) 
0

>  <num_sample>  (1) 
100

>  <b_lp_Chiralities_Consistent>  (1) 
1

>  <r_epik_Charging_Adjusted_Penalty>  (1) 
1.6146942296060567

>  <r_epik_Ionization_Penalty>  (1) 
0.80735470395218212

>  <r_epik_Ionization_Penalty_Charging>  (1) 
0.80734711480302834

>  <r_epik_Ionization_Penalty_Neutral>  (1) 
7.5891491537376816e-06

>  <r_epik_State_Penalty>  (1) 
0.80734711480302834

>  <r_glide_ring_energy>  (1) 
0.3356859326826036

>  <r_i_docking_score>  (1) 
-5.2970179229246508

>  <r_i_glide_ecoul>  (1) 
-7.3298388802428285

>  <r_i_glide_eff_state_penalty>  (1) 
0.80734711480302834

>  <r_i_glide_einternal>  (1) 
21.281634299273762

>  <r_i_glide_emodel>  (1) 
-55.3031922935102

>  <r_i_glide_emodel_strain>  (1) 
0.66349531717821719

>  <r_i_glide_energy>  (1) 
-45.185314036795589

>  <r_i_glide_erotb>  (1) 
0.61110351075041747

>  <r_i_glide_esite>  (1) 
-0.14964427162678229

>  <r_i_glide_evdw>  (1) 
-37.855475156552757

>  <r_i_glide_gscore>  (1) 
-6.1043650377276792

>  <r_i_glide_gscore_strain>  (1) 
0

>  <r_i_glide_hbond>  (1) 
-0.47904863637165707

>  <r_i_glide_ligand_efficiency>  (1) 
-0.14713938674790697

>  <r_i_glide_ligand_efficiency_ln>  (1) 
-1.155666201896151

>  <r_i_glide_ligand_efficiency_sa>  (1) 
-0.48584355048855904

>  <r_i_glide_lipo>  (1) 
-1.8326540659749628

>  <r_i_glide_metal>  (1) 
-0

>  <r_i_glide_rewards>  (1) 
-1.2618719846406323

>  <r_lp_Energy>  (1) 
58.708514999999998

>  <r_lp_tautomer_probability>  (1) 
0.99990000499974985

>  <s_epik_Chemistry_Notes>  (1) 
This compound has an ester and may undergo hydrolysis at high or low pH.

>  <s_epik_cmdline>  (1) 
J2VwaWtfcHl0aG9uJywgJy1waHQnLCAnMS4wJywgJy1waCcsICc3LjQnLCAnLXRuJywgJzgnLCAnLW1hJywgJzUwMCcsICctaW1hZScsICc8aW5maWxlLm1hZT4nLCAnLW9tYWUnLCAnPG91dGZpbGUubWFlPic=

>  <s_epik_input>  (1) 
W0NIM11bQ0BASF0xT1tDQEBIXShbQ0gzXSlbQ0BIXShPQzE9TylbQ0BASF0oW0NIM10pW1BAXTIoPU8pW0NIMl1bQ0BIXShbT0hdKVtDQEBIXShbTkhdMilDKD1PKVtDQEBIXShbTkgyXSlbQ0gyXVtOSF1jM1tjSF1bY0hdYyhbY0hdW2NIXTMpLWM0W2NIXVtjSF1uW2NIXW40

>  <s_glide_docking_method>  (1) 
confgen

>  <s_i_glide_gridfile>  (1) 
gpcr_drd2_6luq_protein_autoprepared_prepared

>  <s_lp_Force_Field>  (1) 
S-OPLS

>  <s_lp_Variant>  (1) 
DiffSBDD_59-2

>  <s_m_source_file>  (1) 
generated_generic_title2_ligand_DiffSBDD_2026-06-23_prepared.sdf

>  <GenAI_Model>  (1) 
DiffSBDD

>  <Protein>  (1) 
generic_title2

$$$$
DiffSBDD_79
     RDKit          3D

  0  0  0  0  0  0  0  0  0  0999 V3000
M  V30 BEGIN CTAB
M  V30 COUNTS 53 56 0 0 1
M  V30 BEGIN ATOM
M  V30 1 C 6.610783 2.181783 -14.487433 0
M  V30 2 C 10.395725 7.224390 -7.341357 0 CFG=2
M  V30 3 C 8.018297 0.213982 -14.267957 0
M  V30 4 C 8.336708 5.303822 -10.760685 0
M  V30 5 C 10.769862 7.248067 -8.830170 0
M  V30 6 C 5.963246 1.279539 -13.426932 0
M  V30 7 C 6.724772 -0.047795 -13.489718 0
M  V30 8 N 10.135253 6.604826 -9.733694 0
M  V30 9 C 8.349963 4.907305 -13.173269 0
M  V30 10 C 9.000547 5.827902 -9.513456 0
M  V30 11 C 11.206131 7.718062 -4.910789 0
M  V30 12 C 9.501444 8.292230 -6.782680 0
M  V30 13 C 6.446307 4.189813 -11.826920 0
M  V30 14 C 12.834248 8.506497 -7.976192 0
M  V30 15 C 7.089001 4.285561 -13.075655 0
M  V30 16 C 7.069894 4.690839 -10.673621 0
M  V30 17 C 11.994510 9.181822 -6.878526 0 CFG=1
M  V30 18 C 6.426772 3.713889 -14.312187 0
M  V30 19 C 11.971041 8.113625 -9.180280 0
M  V30 20 C 10.951376 8.206420 -6.330246 0 CFG=2
M  V30 21 C 8.065646 1.721835 -14.486505 0
M  V30 22 C 8.973456 5.420000 -12.021188 0
M  V30 23 O 8.513462 5.554026 -8.414143 0
M  V30 24 C 12.842599 9.902564 -5.831295 0
M  V30 25 H 6.183293 1.892554 -15.449118 0
M  V30 26 H 10.351152 6.203340 -6.965864 0
M  V30 27 H 7.985135 -0.303688 -15.227526 0
M  V30 28 H 8.902970 -0.136723 -13.736028 0
M  V30 29 H 6.103898 1.681374 -12.426694 0
M  V30 30 H 4.892243 1.148505 -13.584504 0
M  V30 31 H 6.145824 -0.809674 -14.006451 0
M  V30 32 H 6.928121 -0.410813 -12.482555 0
M  V30 33 H 8.841561 4.985442 -14.131780 0
M  V30 34 H 12.175344 7.242432 -4.797814 0
M  V30 35 H 11.145673 8.552279 -4.214220 0
M  V30 36 H 10.459813 6.972325 -4.635376 0
M  V30 37 H 8.720636 7.965895 -6.100191 0
M  V30 38 H 9.213427 9.103919 -7.448296 0
M  V30 39 H 5.476508 3.720623 -11.751859 0
M  V30 40 H 13.312745 7.613863 -7.585025 0
M  V30 41 H 13.637539 9.162271 -8.311324 0
M  V30 42 H 6.576086 4.604419 -9.718106 0
M  V30 43 H 11.440229 9.980072 -7.358596 0
M  V30 44 H 5.375534 3.990238 -14.272598 0
M  V30 45 H 6.826507 4.220449 -15.190794 0
M  V30 46 H 12.583446 7.587129 -9.912276 0
M  V30 47 H 11.608678 9.011554 -9.681774 0
M  V30 48 H 8.575408 1.996757 -15.408522 0
M  V30 49 H 8.588591 2.167261 -13.642657 0
M  V30 50 H 9.941814 5.888920 -12.103649 0
M  V30 51 H 13.450374 9.232353 -5.225478 0
M  V30 52 H 13.521768 10.591422 -6.328523 0
M  V30 53 H 12.186955 10.468658 -5.170168 0
M  V30 END ATOM
M  V30 BEGIN BOND
M  V30 1 1 5 2
M  V30 2 1 6 1
M  V30 3 1 7 3
M  V30 4 1 7 6
M  V30 5 2 8 5
M  V30 6 1 10 4
M  V30 7 1 10 8
M  V30 8 1 12 2
M  V30 9 1 15 9
M  V30 10 2 15 13
M  V30 11 2 16 4
M  V30 12 1 16 13
M  V30 13 1 17 14
M  V30 14 1 18 1
M  V30 15 1 18 15
M  V30 16 1 19 5
M  V30 17 1 19 14
M  V30 18 1 20 2
M  V30 19 1 20 11 CFG=1
M  V30 20 1 20 12
M  V30 21 1 20 17
M  V30 22 1 21 1
M  V30 23 1 21 3
M  V30 24 1 22 4
M  V30 25 2 22 9
M  V30 26 2 23 10
M  V30 27 1 24 17
M  V30 28 1 25 1
M  V30 29 1 2 26 CFG=1
M  V30 30 1 27 3
M  V30 31 1 28 3
M  V30 32 1 29 6
M  V30 33 1 30 6
M  V30 34 1 31 7
M  V30 35 1 32 7
M  V30 36 1 33 9
M  V30 37 1 34 11
M  V30 38 1 35 11
M  V30 39 1 36 11
M  V30 40 1 37 12
M  V30 41 1 38 12
M  V30 42 1 39 13
M  V30 43 1 40 14
M  V30 44 1 41 14
M  V30 45 1 42 16
M  V30 46 1 17 43 CFG=3
M  V30 47 1 44 18
M  V30 48 1 45 18
M  V30 49 1 46 19
M  V30 50 1 47 19
M  V30 51 1 48 21
M  V30 52 1 49 21
M  V30 53 1 50 22
M  V30 54 1 51 24
M  V30 55 1 52 24
M  V30 56 1 53 24
M  V30 END BOND
M  V30 END CTAB
M  END
>  <i_epik_Tot_Q>  (1) 
0

>  <i_epik_Tot_abs_Q>  (1) 
0

>  <i_i_glide_confnum>  (1) 
79

>  <i_i_glide_lignum>  (1) 
138

>  <i_i_glide_posenum>  (1) 
238

>  <i_i_glide_rotatable_bonds>  (1) 
4

>  <i_lp_mmshare_version>  (1) 
72125

>  <i_m_source_file_index>  (1) 
80

>  <i_f3d_flags>  (1) 
0

>  <num_sample>  (1) 
100

>  <b_lp_Chiralities_Consistent>  (1) 
1

>  <r_epik_Charging_Adjusted_Penalty>  (1) 
0

>  <r_epik_Ionization_Penalty>  (1) 
0

>  <r_epik_Ionization_Penalty_Charging>  (1) 
0

>  <r_epik_Ionization_Penalty_Neutral>  (1) 
0

>  <r_epik_State_Penalty>  (1) 
-0

>  <r_glide_ring_energy>  (1) 
0

>  <r_i_docking_score>  (1) 
-5.2965416940083898

>  <r_i_glide_ecoul>  (1) 
0.49451399957985409

>  <r_i_glide_eff_state_penalty>  (1) 
-0

>  <r_i_glide_einternal>  (1) 
1.7701713863927013

>  <r_i_glide_emodel>  (1) 
-36.196219691584105

>  <r_i_glide_emodel_strain>  (1) 
0

>  <r_i_glide_energy>  (1) 
-28.784390970042953

>  <r_i_glide_erotb>  (1) 
0.71538486133248902

>  <r_i_glide_esite>  (1) 
-0.094375557486092623

>  <r_i_glide_evdw>  (1) 
-29.278904969622808

>  <r_i_glide_gscore>  (1) 
-5.2965416940083898

>  <r_i_glide_gscore_strain>  (1) 
0

>  <r_i_glide_hbond>  (1) 
0

>  <r_i_glide_ligand_efficiency>  (1) 
-0.22068923725034958

>  <r_i_glide_ligand_efficiency_ln>  (1) 
-1.2677054698376871

>  <r_i_glide_ligand_efficiency_sa>  (1) 
-0.63657791519157281

>  <r_i_glide_lipo>  (1) 
-2.4242546447651678

>  <r_i_glide_metal>  (1) 
-0

>  <r_i_glide_rewards>  (1) 
-2.103528204545456

>  <r_lp_Energy>  (1) 
51.233270999999995

>  <r_lp_tautomer_probability>  (1) 
1

>  <s_epik_Chemistry_Notes>  (1) 
This compound has an imine and may undergo hydrolysis.

>  <s_epik_cmdline>  (1) 
J2VwaWtfcHl0aG9uJywgJy1waHQnLCAnMS4wJywgJy1waCcsICc3LjQnLCAnLXRuJywgJzgnLCAnLW1hJywgJzUwMCcsICctaW1hZScsICc8aW5maWxlLm1hZT4nLCAnLW9tYWUnLCAnPG91dGZpbGUubWFlPic=

>  <s_epik_input>  (1) 
W0NIMl0xW0NIMl1bQ0gyXVtDSDJdW0NIXTFbQ0gyXWMoW2NIXVtjSF0yKVtjSF1bY0hdYzJDKD1PKS9OPUMoXFtDQEhdKFtDSDJdMylDMzRbQ0gzXSlbQ0gyXVtDSDJdW0NAQEhdNFtDSDNd

>  <s_glide_docking_method>  (1) 
confgen

>  <s_i_glide_gridfile>  (1) 
gpcr_drd2_6luq_protein_autoprepared_prepared

>  <s_lp_Force_Field>  (1) 
S-OPLS

>  <s_lp_Variant>  (1) 
DiffSBDD_79-2

>  <s_m_source_file>  (1) 
generated_generic_title2_ligand_DiffSBDD_2026-06-23_prepared.sdf

>  <GenAI_Model>  (1) 
DiffSBDD

>  <Protein>  (1) 
generic_title2

$$$$
DiffSBDD_80
     RDKit          3D

  0  0  0  0  0  0  0  0  0  0999 V3000
M  V30 BEGIN CTAB
M  V30 COUNTS 80 86 0 0 1
M  V30 BEGIN ATOM
M  V30 1 C 7.688567 6.049045 -11.150007 0
M  V30 2 C 8.350038 4.228038 -20.946623 0
M  V30 3 C 7.330692 3.366163 -14.495699 0
M  V30 4 O 10.520843 3.244987 -20.587799 0
M  V30 5 N 10.024397 8.017674 -6.383985 0 CHG=1
M  V30 6 C 6.498005 0.717714 -14.497340 0
M  V30 7 C 6.926587 2.776814 -13.282127 0
M  V30 8 C 9.504263 3.717733 -20.085414 0
M  V30 9 C 5.915991 3.545093 -11.045085 0
M  V30 10 C 11.316777 7.897523 -9.014120 0 CFG=2
M  V30 11 C 11.492237 8.057885 -6.389187 0 CFG=2
M  V30 12 C 7.966193 3.295652 -18.088312 0 CFG=1
M  V30 13 C 9.402793 6.212429 -9.053678 0 CFG=2
M  V30 14 O 10.111206 6.015464 -11.298924 0
M  V30 15 C 6.812264 3.900937 -18.923194 0
M  V30 16 C 9.338884 3.829224 -18.570576 0
M  V30 17 N 7.747255 4.596988 -14.760588 0
M  V30 18 O 8.315425 4.390222 -7.985040 0
M  V30 19 C 9.310533 8.428617 -7.612795 0
M  V30 20 C 6.511156 1.433537 -13.282190 0
M  V30 21 O 9.375458 8.454592 -10.016159 0
M  V30 22 C 7.174607 5.230374 -12.374094 0 CFG=2
M  V30 23 C 9.305865 5.990210 -13.531838 0
M  V30 24 C 7.042735 3.726681 -12.083057 0 CFG=2
M  V30 25 C 6.910230 1.352019 -15.699092 0
M  V30 26 O 11.750472 9.156636 -5.735174 0 CHG=-1
M  V30 27 C 7.780373 3.573406 -16.601865 0
M  V30 28 C 9.821858 7.722649 -8.910531 0 CFG=1
M  V30 29 C 7.329876 2.702674 -15.608324 0
M  V30 30 N 8.076765 4.827063 -16.157495 0
M  V30 31 C 7.067036 6.852306 -14.258843 0
M  V30 32 C 7.006176 3.680613 -20.436682 0
M  V30 33 C 12.138850 8.100057 -7.772892 0 CFG=2
M  V30 34 C 9.044616 5.653320 -10.475953 0 CFG=2
M  V30 35 C 7.832116 5.614130 -13.717584 0 CFG=1
M  V30 36 C 6.870267 0.591594 -17.012095 0
M  V30 37 O 11.784998 9.190196 -8.632949 0
M  V30 38 C 8.355377 5.751843 -8.040239 0
M  V30 39 C 10.175542 5.315420 -12.506425 0
M  V30 40 H 6.897680 5.990188 -10.414422 0
M  V30 41 H 7.729023 7.100256 -11.424453 0
M  V30 42 H 8.351308 5.317560 -20.908891 0
M  V30 43 H 9.443722 4.884453 -18.320477 0
M  V30 44 H 8.513610 3.943664 -21.986949 0
M  V30 45 H 9.782102 8.662134 -5.648883 0
M  V30 46 H 6.169103 -0.312039 -14.512969 0
M  V30 47 H 5.775354 2.498738 -10.794263 0
M  V30 48 H 6.146388 4.031136 -10.100187 0
M  V30 49 H 4.975485 3.964712 -11.400811 0
M  V30 50 H 11.801848 7.499133 -9.902487 0
M  V30 51 H 11.768261 7.085129 -5.978049 0
M  V30 52 H 8.034324 2.245315 -18.318687 0
M  V30 53 H 10.302885 5.669789 -8.756284 0
M  V30 54 H 5.859430 3.467326 -18.619212 0
M  V30 55 H 6.740726 4.971420 -18.725424 0
M  V30 56 H 10.151404 3.299028 -18.072620 0
M  V30 57 H 7.689468 4.085521 -8.626035 0
M  V30 58 H 9.375281 9.502595 -7.681101 0
M  V30 59 H 8.255430 8.284250 -7.420986 0
M  V30 60 H 6.205276 0.953627 -12.364147 0
M  V30 61 H 8.416377 8.389796 -9.985002 0
M  V30 62 H 6.139073 5.547713 -12.497381 0
M  V30 63 H 9.323400 7.025168 -13.184989 0
M  V30 64 H 9.839723 5.914943 -14.479245 0
M  V30 65 H 7.988376 3.407170 -11.659803 0
M  V30 66 H 7.057949 7.671688 -13.542769 0
M  V30 67 H 7.486690 7.239196 -15.184282 0
M  V30 68 H 6.026727 6.604606 -14.472997 0
M  V30 69 H 6.191846 4.156498 -20.983974 0
M  V30 70 H 6.942056 2.615997 -20.664836 0
M  V30 71 H 13.204682 7.897162 -7.806125 0
M  V30 72 H 9.092172 4.575056 -10.358922 0
M  V30 73 H 6.361128 -0.364150 -16.875866 0
M  V30 74 H 6.289082 1.127799 -17.763495 0
M  V30 75 H 7.871925 0.362447 -17.372891 0
M  V30 76 H 7.375298 5.990213 -8.384965 0
M  V30 77 H 8.494707 6.085050 -7.018049 0
M  V30 78 H 11.182698 5.590235 -12.784801 0
M  V30 79 H 10.088913 4.232355 -12.432469 0
M  V30 80 H 9.720030 7.095254 -6.113429 0
M  V30 END ATOM
M  V30 BEGIN BOND
M  V30 1 2 7 3
M  V30 2 1 8 2
M  V30 3 2 8 4
M  V30 4 1 11 5
M  V30 5 1 15 12
M  V30 6 1 16 8
M  V30 7 1 16 12
M  V30 8 1 17 3
M  V30 9 1 19 5
M  V30 10 2 20 6
M  V30 11 1 20 7
M  V30 12 1 22 1
M  V30 13 1 24 7
M  V30 14 1 24 9
M  V30 15 1 24 22
M  V30 16 1 25 6
M  V30 17 1 26 11
M  V30 18 1 27 12
M  V30 19 1 28 10
M  V30 20 1 28 13
M  V30 21 1 28 19
M  V30 22 1 28 21 CFG=3
M  V30 23 1 29 3
M  V30 24 2 29 25
M  V30 25 1 29 27
M  V30 26 1 30 17
M  V30 27 2 30 27
M  V30 28 1 32 2
M  V30 29 1 32 15
M  V30 30 1 33 10
M  V30 31 1 33 11
M  V30 32 1 34 1
M  V30 33 1 34 13
M  V30 34 1 34 14
M  V30 35 1 35 17
M  V30 36 1 35 22
M  V30 37 1 35 23
M  V30 38 1 35 31 CFG=3
M  V30 39 1 36 25
M  V30 40 1 37 10
M  V30 41 1 37 33
M  V30 42 1 38 13
M  V30 43 1 38 18
M  V30 44 1 39 14
M  V30 45 1 39 23
M  V30 46 1 40 1
M  V30 47 1 41 1
M  V30 48 1 42 2
M  V30 49 1 43 16
M  V30 50 1 44 2
M  V30 51 1 45 5
M  V30 52 1 46 6
M  V30 53 1 47 9
M  V30 54 1 48 9
M  V30 55 1 49 9
M  V30 56 1 10 50 CFG=3
M  V30 57 1 11 51 CFG=1
M  V30 58 1 12 52 CFG=1
M  V30 59 1 13 53 CFG=1
M  V30 60 1 54 15
M  V30 61 1 55 15
M  V30 62 1 56 16
M  V30 63 1 57 18
M  V30 64 1 58 19
M  V30 65 1 59 19
M  V30 66 1 60 20
M  V30 67 1 61 21
M  V30 68 1 22 62 CFG=3
M  V30 69 1 63 23
M  V30 70 1 64 23
M  V30 71 1 24 65 CFG=1
M  V30 72 1 66 31
M  V30 73 1 67 31
M  V30 74 1 68 31
M  V30 75 1 69 32
M  V30 76 1 70 32
M  V30 77 1 33 71 CFG=1
M  V30 78 1 34 72 CFG=1
M  V30 79 1 73 36
M  V30 80 1 74 36
M  V30 81 1 75 36
M  V30 82 1 76 38
M  V30 83 1 77 38
M  V30 84 1 78 39
M  V30 85 1 79 39
M  V30 86 1 80 5
M  V30 END BOND
M  V30 END CTAB
M  END
>  <i_epik_Tot_Q>  (1) 
0

>  <i_epik_Tot_abs_Q>  (1) 
2

>  <i_i_glide_confnum>  (1) 
54

>  <i_i_glide_lignum>  (1) 
140

>  <i_i_glide_posenum>  (1) 
350

>  <i_i_glide_rotatable_bonds>  (1) 
6

>  <i_lp_mmshare_version>  (1) 
72125

>  <i_m_source_file_index>  (1) 
81

>  <i_f3d_flags>  (1) 
0

>  <num_sample>  (1) 
100

>  <b_lp_Chiralities_Consistent>  (1) 
1

>  <r_epik_Charging_Adjusted_Penalty>  (1) 
0.19389291401224384

>  <r_epik_Ionization_Penalty>  (1) 
0.092004943806736766

>  <r_epik_Ionization_Penalty_Charging>  (1) 
0.091964506543683239

>  <r_epik_Ionization_Penalty_Neutral>  (1) 
4.0437263053531681e-05

>  <r_epik_State_Penalty>  (1) 
0.10192840746856062

>  <r_glide_ring_energy>  (1) 
0.99764267455906985

>  <r_i_docking_score>  (1) 
-5.2864182484085109

>  <r_i_glide_ecoul>  (1) 
-11.897032177262956

>  <r_i_glide_eff_state_penalty>  (1) 
0.10192840746856062

>  <r_i_glide_einternal>  (1) 
29.212144992817745

>  <r_i_glide_emodel>  (1) 
-13.702945782265742

>  <r_i_glide_emodel_strain>  (1) 
1.9347886650473356

>  <r_i_glide_energy>  (1) 
-25.276999062559916

>  <r_i_glide_erotb>  (1) 
0.28387705293314092

>  <r_i_glide_esite>  (1) 
0

>  <r_i_glide_evdw>  (1) 
-13.379966885296961

>  <r_i_glide_gscore>  (1) 
-5.3883466558770712

>  <r_i_glide_gscore_strain>  (1) 
0

>  <r_i_glide_hbond>  (1) 
-0.16

>  <r_i_glide_ligand_efficiency>  (1) 
-0.13554918585662848

>  <r_i_glide_ligand_efficiency_ln>  (1) 
-1.1335581363646778

>  <r_i_glide_ligand_efficiency_sa>  (1) 
-0.45967595016825263

>  <r_i_glide_lipo>  (1) 
-2.0301472338352213

>  <r_i_glide_metal>  (1) 
-0

>  <r_i_glide_rewards>  (1) 
-1.0285233041206998

>  <r_lp_Energy>  (1) 
35.890972999999995

>  <r_lp_tautomer_probability>  (1) 
0.99999997999999979

>  <s_epik_Chemistry_Notes>  (1) 
This compound contains an acetal/aminal-like group ( X-CH(R)-Y where X, Y are N, S, or O) that may be acid/base labile, releasing an aldehyde.

>  <s_epik_cmdline>  (1) 
J2VwaWtfcHl0aG9uJywgJy1waHQnLCAnMS4wJywgJy1waCcsICc3LjQnLCAnLXRuJywgJzgnLCAnLW1hJywgJzUwMCcsICctaW1hZScsICc8aW5maWxlLm1hZT4nLCAnLW9tYWUnLCAnPG91dGZpbGUubWFlPic=

>  <s_epik_input>  (1) 
W0NASF0xMltDQEBIXShPMilbQ0BASF0oW09IXSlbTkhdW0NIMl1bQ0BdMShbT0hdKVtDQEBIXShbQ0gyXVtPSF0pW0NASF0oT1tDSDJdW0NIMl0zKVtDSDJdW0NAQEhdNFtDQEBIXShbQ0gzXSljKGM1bjZbQ0BdMzRbQ0gzXSlbY0hdW2NIXWMoW0NIM10pYzVjKG42KVtDQEhdKFtDSDJdW0NIMl1bQ0gyXTcpW0NIXT1DN1tPSF0=

>  <s_glide_docking_method>  (1) 
confgen

>  <s_i_glide_gridfile>  (1) 
gpcr_drd2_6luq_protein_autoprepared_prepared

>  <s_lp_Force_Field>  (1) 
S-OPLS

>  <s_lp_Variant>  (1) 
DiffSBDD_80-2

>  <s_m_source_file>  (1) 
generated_generic_title2_ligand_DiffSBDD_2026-06-23_prepared.sdf

>  <GenAI_Model>  (1) 
DiffSBDD

>  <Protein>  (1) 
generic_title2

$$$$
DiffSBDD_65
     RDKit          3D

  0  0  0  0  0  0  0  0  0  0999 V3000
M  V30 BEGIN CTAB
M  V30 COUNTS 66 68 0 0 1
M  V30 BEGIN ATOM
M  V30 1 C 9.476067 6.857500 -8.245405 0 CFG=2
M  V30 2 N 9.238439 4.790227 -14.626241 0
M  V30 3 C 10.946933 7.136775 -7.844881 0
M  V30 4 C 6.036199 6.397930 -17.538148 0
M  V30 5 C 4.977377 6.207768 -21.647648 0
M  V30 6 C 6.249615 6.459855 -19.957268 0 CFG=1
M  V30 7 O 8.797427 6.390149 -7.092265 0
M  V30 8 O 9.373563 3.823798 -16.683981 0
M  V30 9 O 7.276750 5.904250 -17.167580 0
M  V30 10 O 8.052840 5.392374 -9.530852 0
M  V30 11 C 9.374953 5.863524 -9.435115 0 CFG=1
M  V30 12 C 7.653572 5.834130 -20.115687 0
M  V30 13 C 11.121554 8.289881 -6.839400 0
M  V30 14 O 5.864802 8.992767 -22.854654 0
M  V30 15 C 5.127518 4.044457 -20.149636 0
M  V30 16 C 8.349374 5.504080 -13.945633 0
M  V30 17 F 11.648664 7.490693 -8.922903 0
M  V30 18 C 10.975510 6.529583 -12.554587 0
M  V30 19 C 7.263933 5.008455 -16.065831 0 CFG=2
M  V30 20 C 9.782552 5.876375 -11.842716 0 CFG=2
M  V30 21 C 8.492954 6.051617 -12.659382 0
M  V30 22 N 7.498670 6.785311 -12.087650 0
M  V30 23 O 9.756797 6.561468 -10.584885 0
M  V30 24 C 8.833873 6.776989 -19.828764 0
M  V30 25 F 11.496523 6.032531 -7.338718 0
M  V30 26 C 6.170449 6.398132 -14.123604 0
M  V30 27 C 5.024094 5.561040 -20.261215 0 CFG=2
M  V30 28 C 7.234843 5.672637 -14.661911 0
M  V30 29 C 6.628435 8.255790 -21.922479 0
M  V30 30 O 10.578170 7.950166 -5.585051 0
M  V30 31 C 8.760666 4.462382 -15.830641 0
M  V30 32 O 6.101849 7.146210 -18.711096 0
M  V30 33 C 6.346816 6.938575 -12.819531 0
M  V30 34 C 5.699810 7.417488 -21.048779 0 CFG=1
M  V30 35 H 8.995643 7.789175 -8.546606 0
M  V30 36 H 10.155335 4.556729 -14.266758 0
M  V30 37 H 5.302219 5.596489 -17.622698 0
M  V30 38 H 5.694172 7.089538 -16.770414 0
M  V30 39 H 3.975282 6.418951 -22.021077 0
M  V30 40 H 5.576398 5.678010 -22.390888 0
M  V30 41 H 7.865889 6.563889 -7.218443 0
M  V30 42 H 7.494350 6.170577 -9.585077 0
M  V30 43 H 10.015563 4.995981 -9.280051 0
M  V30 44 H 7.748205 4.964855 -19.464244 0
M  V30 45 H 7.767591 5.437282 -21.124831 0
M  V30 46 H 10.628182 9.189479 -7.205179 0
M  V30 47 H 12.175508 8.532644 -6.707554 0
M  V30 48 H 6.456565 9.443893 -23.438809 0
M  V30 49 H 5.873742 3.640445 -20.834059 0
M  V30 50 H 5.405630 3.734097 -19.142654 0
M  V30 51 H 4.175464 3.572519 -20.386551 0
M  V30 52 H 11.158225 6.106066 -13.537867 0
M  V30 53 H 10.790928 7.590217 -12.694108 0
M  V30 54 H 11.896085 6.422657 -11.984999 0
M  V30 55 H 6.575408 4.173523 -16.160991 0
M  V30 56 H 9.981225 4.812808 -11.701797 0
M  V30 57 H 9.777990 6.236549 -19.900921 0
M  V30 58 H 8.885578 7.605450 -20.531038 0
M  V30 59 H 8.775994 7.190236 -18.822837 0
M  V30 60 H 5.254220 6.544662 -14.670611 0
M  V30 61 H 4.175412 5.921611 -19.679742 0
M  V30 62 H 7.200139 8.959072 -21.316518 0
M  V30 63 H 7.339887 7.628947 -22.461334 0
M  V30 64 H 9.839699 7.372752 -5.754007 0
M  V30 65 H 5.556934 7.510236 -12.354881 0
M  V30 66 H 4.947882 8.065730 -20.590234 0
M  V30 END ATOM
M  V30 BEGIN BOND
M  V30 1 1 3 1
M  V30 2 1 7 1
M  V30 3 1 9 4
M  V30 4 1 11 1
M  V30 5 1 11 10
M  V30 6 1 12 6
M  V30 7 1 13 3
M  V30 8 1 16 2
M  V30 9 1 17 3
M  V30 10 1 19 9
M  V30 11 1 20 18
M  V30 12 1 21 16
M  V30 13 1 21 20
M  V30 14 2 22 21
M  V30 15 1 23 11
M  V30 16 1 23 20
M  V30 17 1 24 12
M  V30 18 1 25 3
M  V30 19 1 27 5
M  V30 20 1 27 6
M  V30 21 1 27 15
M  V30 22 2 28 16
M  V30 23 1 28 19
M  V30 24 1 28 26
M  V30 25 1 29 14
M  V30 26 1 30 13
M  V30 27 1 31 2
M  V30 28 2 31 8
M  V30 29 1 31 19
M  V30 30 1 32 4
M  V30 31 1 6 32 CFG=1
M  V30 32 1 33 22
M  V30 33 2 33 26
M  V30 34 1 34 5
M  V30 35 1 34 6
M  V30 36 1 34 29
M  V30 37 1 1 35 CFG=3
M  V30 38 1 36 2
M  V30 39 1 37 4
M  V30 40 1 38 4
M  V30 41 1 39 5
M  V30 42 1 40 5
M  V30 43 1 41 7
M  V30 44 1 42 10
M  V30 45 1 11 43 CFG=1
M  V30 46 1 44 12
M  V30 47 1 45 12
M  V30 48 1 46 13
M  V30 49 1 47 13
M  V30 50 1 48 14
M  V30 51 1 49 15
M  V30 52 1 50 15
M  V30 53 1 51 15
M  V30 54 1 52 18
M  V30 55 1 53 18
M  V30 56 1 54 18
M  V30 57 1 19 55 CFG=3
M  V30 58 1 20 56 CFG=1
M  V30 59 1 57 24
M  V30 60 1 58 24
M  V30 61 1 59 24
M  V30 62 1 60 26
M  V30 63 1 27 61 CFG=1
M  V30 64 1 62 29
M  V30 65 1 63 29
M  V30 66 1 64 30
M  V30 67 1 65 33
M  V30 68 1 34 66 CFG=1
M  V30 END BOND
M  V30 END CTAB
M  END
>  <i_epik_Tot_Q>  (1) 
0

>  <i_epik_Tot_abs_Q>  (1) 
0

>  <i_i_glide_confnum>  (1) 
2251

>  <i_i_glide_lignum>  (1) 
106

>  <i_i_glide_posenum>  (1) 
121

>  <i_i_glide_rotatable_bonds>  (1) 
16

>  <i_lp_mmshare_version>  (1) 
72125

>  <i_m_source_file_index>  (1) 
66

>  <i_f3d_flags>  (1) 
0

>  <num_sample>  (1) 
100

>  <b_lp_Chiralities_Consistent>  (1) 
1

>  <r_epik_Charging_Adjusted_Penalty>  (1) 
0

>  <r_epik_Ionization_Penalty>  (1) 
0.020984920231991385

>  <r_epik_Ionization_Penalty_Charging>  (1) 
0

>  <r_epik_Ionization_Penalty_Neutral>  (1) 
0.020984920231991385

>  <r_epik_State_Penalty>  (1) 
-0

>  <r_glide_ring_energy>  (1) 
0

>  <r_i_docking_score>  (1) 
-5.2862990093344431

>  <r_i_glide_ecoul>  (1) 
-8.3507220011570826

>  <r_i_glide_eff_state_penalty>  (1) 
-0

>  <r_i_glide_einternal>  (1) 
9.3844550597892784

>  <r_i_glide_emodel>  (1) 
-46.770871099159642

>  <r_i_glide_emodel_strain>  (1) 
1.4033904015036427

>  <r_i_glide_energy>  (1) 
-39.897488805663222

>  <r_i_glide_erotb>  (1) 
0.93044466926125857

>  <r_i_glide_esite>  (1) 
-0.077352869961914025

>  <r_i_glide_evdw>  (1) 
-31.546766804506142

>  <r_i_glide_gscore>  (1) 
-5.2862990093344431

>  <r_i_glide_gscore_strain>  (1) 
0

>  <r_i_glide_hbond>  (1) 
-0.4646511585716781

>  <r_i_glide_ligand_efficiency>  (1) 
-0.15547938262748362

>  <r_i_glide_ligand_efficiency_ln>  (1) 
-1.1678917268267588

>  <r_i_glide_ligand_efficiency_sa>  (1) 
-0.50369284281533333

>  <r_i_glide_lipo>  (1) 
-1.7738842706552043

>  <r_i_glide_metal>  (1) 
-0

>  <r_i_glide_rewards>  (1) 
-1.0709087390080347

>  <r_lp_Energy>  (1) 
35.882733000000002

>  <r_lp_tautomer_probability>  (1) 
1

>  <s_epik_Chemistry_Notes>  (1) 
This compound contains an acetal/aminal-like group ( X-CH(R)-Y where X, Y are N, S, or O) that may be acid/base labile, releasing an aldehyde.

>  <s_epik_cmdline>  (1) 
J2VwaWtfcHl0aG9uJywgJy1waHQnLCAnMS4wJywgJy1waCcsICc3LjQnLCAnLXRuJywgJzgnLCAnLW1hJywgJzUwMCcsICctaW1hZScsICc8aW5maWxlLm1hZT4nLCAnLW9tYWUnLCAnPG91dGZpbGUubWFlPic=

>  <s_epik_input>  (1) 
W09IXVtDSDJdQyhGKShGKVtDQEhdKFtPSF0pW0NAQEhdKFtPSF0pT1tDQEhdKFtDSDNdKWMxbltjSF1bY0hdYyhjMTIpW0NASF0oQyg9TylbTkhdMilPW0NIMl1PW0NAQF0zKFtDSDJdW0NIM10pW0NASF0oW0NIM10pW0NIMl1bQ0BASF0zW0NIMl1bT0hd

>  <s_glide_docking_method>  (1) 
confgen

>  <s_i_glide_gridfile>  (1) 
gpcr_drd2_6luq_protein_autoprepared_prepared

>  <s_lp_Force_Field>  (1) 
S-OPLS

>  <s_lp_Variant>  (1) 
DiffSBDD_65-1

>  <s_m_source_file>  (1) 
generated_generic_title2_ligand_DiffSBDD_2026-06-23_prepared.sdf

>  <GenAI_Model>  (1) 
DiffSBDD

>  <Protein>  (1) 
generic_title2

$$$$
DiffSBDD_8
     RDKit          3D

  0  0  0  0  0  0  0  0  0  0999 V3000
M  V30 BEGIN CTAB
M  V30 COUNTS 61 63 0 0 1
M  V30 BEGIN ATOM
M  V30 1 C 8.994534 6.224129 -10.360406 0
M  V30 2 O 10.831681 8.512810 -7.140052 0
M  V30 3 C 7.210714 2.000902 -13.171733 0
M  V30 4 N 10.956784 6.790355 -5.722343 0
M  V30 5 C 6.467453 6.111588 -15.407913 0 CFG=2
M  V30 6 C 8.148941 4.641071 -13.451443 0
M  V30 7 N 8.575428 5.990263 -7.301391 0 CHG=1
M  V30 8 C 7.050534 5.013363 -18.328813 0
M  V30 9 C 5.732706 7.100514 -19.018272 0
M  V30 10 O 4.799501 7.331444 -16.471684 0
M  V30 11 C 6.366802 2.980371 -13.698356 0
M  V30 12 C 6.144839 4.142174 -19.217598 0
M  V30 13 O 5.962257 5.233482 -14.442401 0
M  V30 14 S 10.290980 6.390243 -12.745666 0
M  V30 15 C 6.755420 7.425521 -14.652529 0
M  V30 16 C 8.691277 6.056096 -13.613080 0 CFG=2
M  V30 17 N 9.731925 7.065501 -11.277576 0
M  V30 18 F 6.767623 0.728974 -13.031724 0
M  V30 19 C 3.468000 6.954892 -16.800734 0
M  V30 20 C 10.680669 7.445275 -10.238451 0
M  V30 21 C 7.644261 7.177115 -13.422975 0
M  V30 22 C 9.572699 7.096662 -9.241812 0
M  V30 23 C 6.443311 6.362818 -17.857438 0 CFG=1
M  V30 24 N 5.649825 6.171711 -16.623050 0
M  V30 25 C 10.598193 7.334115 -6.889240 0
M  V30 26 C 8.510615 2.332916 -12.785041 0
M  V30 27 C 8.975000 3.641576 -12.905073 0
M  V30 28 C 6.819716 4.299973 -13.869839 0
M  V30 29 C 9.852540 6.434618 -7.883353 0 CFG=1
M  V30 30 H 7.914588 6.270933 -10.485598 0
M  V30 31 H 9.361611 5.197149 -10.352486 0
M  V30 32 H 11.418387 7.358237 -5.028043 0
M  V30 33 H 10.787616 5.811282 -5.541986 0
M  V30 34 H 7.398390 5.671716 -15.747519 0
M  V30 35 H 8.708071 5.661340 -6.357507 0
M  V30 36 H 7.908575 6.763718 -7.291650 0
M  V30 37 H 7.958901 5.223932 -18.894519 0
M  V30 38 H 7.380025 4.414760 -17.479738 0
M  V30 39 H 6.421590 7.250696 -19.850289 0
M  V30 40 H 4.881422 6.541610 -19.404391 0
M  V30 41 H 5.375397 8.090120 -18.730042 0
M  V30 42 H 5.375435 2.716131 -13.984874 0
M  V30 43 H 6.583570 3.154421 -19.362995 0
M  V30 44 H 5.157598 3.999549 -18.784803 0
M  V30 45 H 6.008958 4.583209 -20.205688 0
M  V30 46 H 7.207634 8.153806 -15.319336 0
M  V30 47 H 5.807976 7.851583 -14.323606 0
M  V30 48 H 9.032115 5.990239 -14.643469 0
M  V30 49 H 2.781294 7.710620 -16.418203 0
M  V30 50 H 3.310052 6.900679 -17.875899 0
M  V30 51 H 3.182120 5.990356 -16.384969 0
M  V30 52 H 11.546654 6.791011 -10.174704 0
M  V30 53 H 10.958509 8.499543 -10.256360 0
M  V30 54 H 8.138165 8.120070 -13.186033 0
M  V30 55 H 7.022571 6.951576 -12.555951 0
M  V30 56 H 8.975422 8.000887 -9.105360 0
M  V30 57 H 7.279977 7.001739 -17.585071 0
M  V30 58 H 9.154286 1.582685 -12.385237 0
M  V30 59 H 9.981394 3.870395 -12.595547 0
M  V30 60 H 10.470775 5.550830 -8.045730 0
M  V30 61 H 8.175196 5.266146 -7.879161 0
M  V30 END ATOM
M  V30 BEGIN BOND
M  V30 1 2 11 3
M  V30 2 1 12 8
M  V30 3 1 13 5
M  V30 4 1 15 5
M  V30 5 1 16 6
M  V30 6 1 16 14
M  V30 7 1 17 1
M  V30 8 1 17 14
M  V30 9 1 18 3
M  V30 10 1 19 10
M  V30 11 1 20 17
M  V30 12 1 21 15
M  V30 13 1 21 16
M  V30 14 1 22 1
M  V30 15 1 22 20
M  V30 16 1 23 8
M  V30 17 1 23 9
M  V30 18 1 24 5
M  V30 19 1 24 10
M  V30 20 1 24 23
M  V30 21 2 25 2
M  V30 22 1 25 4
M  V30 23 1 26 3
M  V30 24 1 27 6
M  V30 25 2 27 26
M  V30 26 2 28 6
M  V30 27 1 28 11
M  V30 28 1 28 13
M  V30 29 1 29 7
M  V30 30 1 29 22
M  V30 31 1 29 25
M  V30 32 1 30 1
M  V30 33 1 31 1
M  V30 34 1 32 4
M  V30 35 1 33 4
M  V30 36 1 5 34 CFG=3
M  V30 37 1 35 7
M  V30 38 1 36 7
M  V30 39 1 37 8
M  V30 40 1 38 8
M  V30 41 1 39 9
M  V30 42 1 40 9
M  V30 43 1 41 9
M  V30 44 1 42 11
M  V30 45 1 43 12
M  V30 46 1 44 12
M  V30 47 1 45 12
M  V30 48 1 46 15
M  V30 49 1 47 15
M  V30 50 1 16 48 CFG=3
M  V30 51 1 49 19
M  V30 52 1 50 19
M  V30 53 1 51 19
M  V30 54 1 52 20
M  V30 55 1 53 20
M  V30 56 1 54 21
M  V30 57 1 55 21
M  V30 58 1 56 22
M  V30 59 1 23 57 CFG=1
M  V30 60 1 58 26
M  V30 61 1 59 27
M  V30 62 1 29 60 CFG=3
M  V30 63 1 61 7
M  V30 END BOND
M  V30 END CTAB
M  END
>  <i_epik_Tot_Q>  (1) 
1

>  <i_epik_Tot_abs_Q>  (1) 
1

>  <i_i_glide_confnum>  (1) 
23

>  <i_i_glide_lignum>  (1) 
15

>  <i_i_glide_posenum>  (1) 
117

>  <i_i_glide_rotatable_bonds>  (1) 
8

>  <i_lp_mmshare_version>  (1) 
72125

>  <i_m_source_file_index>  (1) 
9

>  <i_f3d_flags>  (1) 
0

>  <num_sample>  (1) 
100

>  <b_lp_Chiralities_Consistent>  (1) 
1

>  <r_epik_Charging_Adjusted_Penalty>  (1) 
1.6197365423892824

>  <r_epik_Ionization_Penalty>  (1) 
0.73483714514200482

>  <r_epik_Ionization_Penalty_Charging>  (1) 
0.26301760809738622

>  <r_epik_Ionization_Penalty_Neutral>  (1) 
0.47181953704461854

>  <r_epik_State_Penalty>  (1) 
1.3567189342918962

>  <r_glide_ring_energy>  (1) 
0

>  <r_i_docking_score>  (1) 
-5.2846020543556342

>  <r_i_glide_ecoul>  (1) 
-7.1301696846804372

>  <r_i_glide_eff_state_penalty>  (1) 
1.3567189342918962

>  <r_i_glide_einternal>  (1) 
16.842476608949589

>  <r_i_glide_emodel>  (1) 
-39.179418425282392

>  <r_i_glide_emodel_strain>  (1) 
2.7312270839225334

>  <r_i_glide_energy>  (1) 
-32.959367035374306

>  <r_i_glide_erotb>  (1) 
0.38015017681646152

>  <r_i_glide_esite>  (1) 
-0.099225031139719852

>  <r_i_glide_evdw>  (1) 
-25.829197350693867

>  <r_i_glide_gscore>  (1) 
-6.6413209886475304

>  <r_i_glide_gscore_strain>  (1) 
0

>  <r_i_glide_hbond>  (1) 
-0.19046788975555082

>  <r_i_glide_ligand_efficiency>  (1) 
-0.18222765704674601

>  <r_i_glide_ligand_efficiency_ln>  (1) 
-1.210039864501691

>  <r_i_glide_ligand_efficiency_sa>  (1) 
-0.55986109685002805

>  <r_i_glide_lipo>  (1) 
-1.7398556781846726

>  <r_i_glide_metal>  (1) 
-0

>  <r_i_glide_rewards>  (1) 
-2.6309372461472882

>  <r_lp_Energy>  (1) 
41.059792999999999

>  <s_epik_Chemistry_Notes>  (1) 
This compound contains an acetal/aminal-like group ( X-CH(R)-Y where X, Y are N, S, or O) that may be acid/base labile, releasing an aldehyde. This compound has a N-S or N-O group and may undergo hydrolysis at high or low pH.

>  <s_epik_cmdline>  (1) 
J2VwaWtfcHl0aG9uJywgJy1waHQnLCAnMS4wJywgJy1waCcsICc3LjQnLCAnLXRuJywgJzgnLCAnLW1hJywgJzUwMCcsICctaW1hZScsICc8aW5maWxlLm1hZT4nLCAnLW9tYWUnLCAnPG91dGZpbGUubWFlPic=

>  <s_epik_input>  (1) 
Tz1DKFtOSDJdKVtDQEBIXShbTkgyXSlbQ0hdKFtDSDJdMSlbQ0gyXU4xU1tDQEBIXTJbQ0gyXVtDSDJdW0NASF0oTihPW0NIM10pW0NASF0oW0NIM10pW0NIMl1bQ0gzXSlPYyhjMjMpW2NIXWMoRilbY0hdW2NIXTM=

>  <s_glide_docking_method>  (1) 
confgen

>  <s_i_glide_gridfile>  (1) 
gpcr_drd2_6luq_protein_autoprepared_prepared

>  <s_lp_Force_Field>  (1) 
S-OPLS

>  <s_lp_Variant>  (1) 
DiffSBDD_8-5

>  <s_m_source_file>  (1) 
generated_generic_title2_ligand_DiffSBDD_2026-06-23_prepared.sdf

>  <GenAI_Model>  (1) 
DiffSBDD

>  <Protein>  (1) 
generic_title2

$$$$
DiffSBDD_39
     RDKit          3D

  0  0  0  0  0  0  0  0  0  0999 V3000
M  V30 BEGIN CTAB
M  V30 COUNTS 48 49 0 0 1
M  V30 BEGIN ATOM
M  V30 1 C 11.074827 7.567316 -5.187029 0
M  V30 2 C 12.442969 7.645160 -2.346898 0
M  V30 3 O 6.175398 1.914783 -13.143474 0
M  V30 4 C 7.522057 2.167005 -13.452162 0
M  V30 5 C 7.737942 2.892405 -14.753405 0
M  V30 6 C 9.453756 6.007822 -9.129800 0
M  V30 7 C 12.145282 6.575101 -3.128562 0
M  V30 8 C 12.056041 9.032828 -2.545659 0
M  V30 9 C 11.026467 7.458341 -7.725845 0
M  V30 10 C 11.598866 8.945331 -5.013818 0
M  V30 11 C 11.651954 9.590227 -3.689058 0
M  V30 12 C 6.753973 4.777992 -11.532394 0
M  V30 13 C 11.357887 6.542366 -4.368706 0
M  V30 14 C 8.036103 3.591114 -13.432139 0 CFG=1
M  V30 15 C 10.216994 7.364140 -6.423035 0
M  V30 16 C 10.158811 7.363308 -8.987581 0
M  V30 17 N 8.575384 5.990222 -10.308180 0 CHG=1
M  V30 18 O 8.441619 1.134872 -13.185020 0
M  V30 19 C 7.190505 4.788195 -13.009568 0
M  V30 20 C 7.892464 4.698488 -10.505213 0
M  V30 21 H 12.980974 7.430786 -1.439670 0
M  V30 22 H 5.876485 1.207393 -13.695811 0
M  V30 23 H 8.575408 2.589085 -15.375965 0
M  V30 24 H 6.856665 3.212879 -15.305561 0
M  V30 25 H 8.825821 5.814023 -8.260337 0
M  V30 26 H 10.175396 5.194665 -9.185450 0
M  V30 27 H 12.483509 5.616240 -2.761006 0
M  V30 28 H 12.091875 9.675774 -1.677373 0
M  V30 29 H 11.775381 6.669365 -7.732578 0
M  V30 30 H 11.572292 8.402031 -7.755213 0
M  V30 31 H 12.575420 9.032486 -5.485278 0
M  V30 32 H 10.955415 9.603947 -5.598707 0
M  V30 33 H 11.375365 10.628504 -3.680249 0
M  V30 34 H 6.131977 5.650391 -11.324913 0
M  V30 35 H 6.099604 3.920534 -11.376548 0
M  V30 36 H 10.957247 5.590194 -4.649239 0
M  V30 37 H 9.090068 3.699743 -13.178697 0
M  V30 38 H 9.409481 8.098136 -6.421111 0
M  V30 39 H 9.732791 6.390578 -6.348897 0
M  V30 40 H 10.786596 7.541524 -9.862648 0
M  V30 41 H 9.416857 8.164258 -8.974138 0
M  V30 42 H 9.083105 6.248669 -11.140268 0
M  V30 43 H 8.732091 1.190249 -12.280611 0
M  V30 44 H 7.745792 5.699811 -13.233349 0
M  V30 45 H 6.294662 4.822201 -13.630672 0
M  V30 46 H 7.462410 4.390169 -9.550999 0
M  V30 47 H 8.623168 3.940072 -10.784189 0
M  V30 48 H 7.860685 6.700311 -10.112960 0
M  V30 END ATOM
M  V30 BEGIN BOND
M  V30 1 1 4 3
M  V30 2 1 5 4
M  V30 3 2 7 2
M  V30 4 1 8 2
M  V30 5 1 10 1
M  V30 6 2 11 8
M  V30 7 1 11 10
M  V30 8 2 13 1
M  V30 9 1 13 7
M  V30 10 1 14 4
M  V30 11 1 14 5
M  V30 12 1 15 1
M  V30 13 1 15 9
M  V30 14 1 16 6
M  V30 15 1 16 9
M  V30 16 1 17 6
M  V30 17 1 18 4
M  V30 18 1 19 12
M  V30 19 1 19 14
M  V30 20 1 20 12
M  V30 21 1 20 17
M  V30 22 1 21 2
M  V30 23 1 22 3
M  V30 24 1 23 5
M  V30 25 1 24 5
M  V30 26 1 25 6
M  V30 27 1 26 6
M  V30 28 1 27 7
M  V30 29 1 28 8
M  V30 30 1 29 9
M  V30 31 1 30 9
M  V30 32 1 31 10
M  V30 33 1 32 10
M  V30 34 1 33 11
M  V30 35 1 34 12
M  V30 36 1 35 12
M  V30 37 1 36 13
M  V30 38 1 14 37 CFG=3
M  V30 39 1 38 15
M  V30 40 1 39 15
M  V30 41 1 40 16
M  V30 42 1 41 16
M  V30 43 1 42 17
M  V30 44 1 43 18
M  V30 45 1 44 19
M  V30 46 1 45 19
M  V30 47 1 46 20
M  V30 48 1 47 20
M  V30 49 1 48 17
M  V30 END BOND
M  V30 END CTAB
M  END
>  <i_epik_Tot_Q>  (1) 
1

>  <i_epik_Tot_abs_Q>  (1) 
1

>  <i_i_glide_confnum>  (1) 
390

>  <i_i_glide_lignum>  (1) 
65

>  <i_i_glide_posenum>  (1) 
48

>  <i_i_glide_rotatable_bonds>  (1) 
11

>  <i_lp_mmshare_version>  (1) 
72125

>  <i_m_source_file_index>  (1) 
40

>  <i_f3d_flags>  (1) 
0

>  <num_sample>  (1) 
100

>  <b_lp_Chiralities_Consistent>  (1) 
1

>  <r_epik_Charging_Adjusted_Penalty>  (1) 
0.00040157978397640045

>  <r_epik_Ionization_Penalty>  (1) 
0.00040175900368966919

>  <r_epik_Ionization_Penalty_Charging>  (1) 
0.00040157978397640045

>  <r_epik_Ionization_Penalty_Neutral>  (1) 
1.7921971326873193e-07

>  <r_epik_State_Penalty>  (1) 
-0

>  <r_glide_ring_energy>  (1) 
0

>  <r_i_docking_score>  (1) 
-5.283744160719456

>  <r_i_glide_ecoul>  (1) 
-10.235961726203563

>  <r_i_glide_eff_state_penalty>  (1) 
-0

>  <r_i_glide_einternal>  (1) 
5.4865169258353967

>  <r_i_glide_emodel>  (1) 
-52.251292470740218

>  <r_i_glide_emodel_strain>  (1) 
0.32636354951527835

>  <r_i_glide_energy>  (1) 
-37.045156045140843

>  <r_i_glide_erotb>  (1) 
3.7206293097687571

>  <r_i_glide_esite>  (1) 
-0.095373723972354441

>  <r_i_glide_evdw>  (1) 
-26.809194318937276

>  <r_i_glide_gscore>  (1) 
-5.283744160719456

>  <r_i_glide_gscore_strain>  (1) 
0

>  <r_i_glide_hbond>  (1) 
-0.52000000000000002

>  <r_i_glide_ligand_efficiency>  (1) 
-0.26418720803597279

>  <r_i_glide_ligand_efficiency_ln>  (1) 
-1.3223468938823189

>  <r_i_glide_ligand_efficiency_sa>  (1) 
-0.71711441157186806

>  <r_i_glide_lipo>  (1) 
-2.8133360648384773

>  <r_i_glide_metal>  (1) 
-0

>  <r_i_glide_rewards>  (1) 
-2.6998097067999831

>  <r_lp_Energy>  (1) 
15.408104999999999

>  <r_lp_tautomer_probability>  (1) 
1

>  <s_epik_cmdline>  (1) 
J2VwaWtfcHl0aG9uJywgJy1waHQnLCAnMS4wJywgJy1waCcsICc3LjQnLCAnLXRuJywgJzgnLCAnLW1hJywgJzUwMCcsICctaW1hZScsICc8aW5maWxlLm1hZT4nLCAnLW9tYWUnLCAnPG91dGZpbGUubWFlPic=

>  <s_epik_input>  (1) 
W0NIMl0xW0NIXT1bQ0hdW0NIXT1bQ0hdW0NIXT1DMVtDSDJdW0NIMl1bQ0gyXVtDSDJdW05IXVtDSDJdW0NIMl1bQ0gyXVtDQEBIXTJbQ0gyXUMyKFtPSF0pW09IXQ==

>  <s_glide_docking_method>  (1) 
confgen

>  <s_i_glide_gridfile>  (1) 
gpcr_drd2_6luq_protein_autoprepared_prepared

>  <s_lp_Force_Field>  (1) 
S-OPLS

>  <s_lp_Variant>  (1) 
DiffSBDD_39-1

>  <s_m_source_file>  (1) 
generated_generic_title2_ligand_DiffSBDD_2026-06-23_prepared.sdf

>  <GenAI_Model>  (1) 
DiffSBDD

>  <Protein>  (1) 
generic_title2

$$$$
DiffSBDD_47
     RDKit          3D

  0  0  0  0  0  0  0  0  0  0999 V3000
M  V30 BEGIN CTAB
M  V30 COUNTS 52 54 0 0 1
M  V30 BEGIN ATOM
M  V30 1 C 8.215518 5.388789 -11.141633 0
M  V30 2 C 6.282465 7.519331 -14.675211 0
M  V30 3 O 6.682211 4.276828 -12.619169 0
M  V30 4 C 10.914430 7.150969 -7.810983 0 CFG=2
M  V30 5 C 10.911745 8.337883 -5.458207 0 CFG=2
M  V30 6 N 8.225160 5.644558 -13.561199 0
M  V30 7 C 9.787207 6.562601 -9.672549 0
M  V30 8 O 10.975415 10.650264 -4.784988 0
M  V30 9 C 10.900680 7.466928 -9.379895 0
M  V30 10 C 7.651356 4.790262 -9.986115 0
M  V30 11 C 12.168757 7.551836 -3.308992 0
M  V30 12 C 9.232670 5.983641 -8.589581 0
M  V30 13 O 8.453290 3.828049 -16.670595 0
M  V30 14 O 12.679100 6.926186 -2.385211 0
M  V30 15 C 11.722710 9.457056 -4.766310 0 CFG=1
M  V30 16 C 12.131093 9.067131 -3.335312 0
M  V30 17 C 7.635512 5.051084 -12.511462 0
M  V30 18 C 9.319175 6.301999 -10.975865 0
M  V30 19 C 8.169022 5.089647 -8.707719 0
M  V30 20 C 7.913163 3.956720 -15.370361 0
M  V30 21 O 9.768059 6.324351 -7.400154 0
M  V30 22 C 6.132803 6.158959 -16.774773 0
M  V30 23 S 11.375411 6.756225 -4.714142 0
M  V30 24 O 9.917311 6.918494 -12.043686 0
M  V30 25 C 11.018431 8.442358 -6.995406 0
M  V30 26 C 6.422415 6.102219 -15.265972 0
M  V30 27 C 7.801934 5.446953 -14.954011 0 CFG=1
M  V30 28 H 7.072030 8.180249 -15.032496 0
M  V30 29 H 5.328181 7.969531 -14.951735 0
M  V30 30 H 6.322375 7.511863 -13.584388 0
M  V30 31 H 11.778104 6.530940 -7.590014 0
M  V30 32 H 9.856856 8.404499 -5.208765 0
M  V30 33 H 9.004654 6.269935 -13.385036 0
M  V30 34 H 10.191900 10.541089 -4.268303 0
M  V30 35 H 11.827931 7.190287 -9.880928 0
M  V30 36 H 10.620314 8.492917 -9.619191 0
M  V30 37 H 6.821565 4.103961 -10.080974 0
M  V30 38 H 9.345475 4.140332 -16.656130 0
M  V30 39 H 12.643007 9.647438 -5.320401 0
M  V30 40 H 11.397381 9.397733 -2.600259 0
M  V30 41 H 13.097766 9.489694 -3.060610 0
M  V30 42 H 7.739895 4.635608 -7.827741 0
M  V30 43 H 8.575410 3.412409 -14.695303 0
M  V30 44 H 6.943909 3.459126 -15.321541 0
M  V30 45 H 6.857377 6.787588 -17.290380 0
M  V30 46 H 6.172426 5.172594 -17.232822 0
M  V30 47 H 5.140440 6.566022 -16.968779 0
M  V30 48 H 10.557672 7.559102 -11.779410 0
M  V30 49 H 11.957999 8.916641 -7.277408 0
M  V30 50 H 10.242217 9.132081 -7.329277 0
M  V30 51 H 5.643970 5.489924 -14.808940 0
M  V30 52 H 8.562765 5.992870 -15.513659 0
M  V30 END ATOM
M  V30 BEGIN BOND
M  V30 1 1 9 4
M  V30 2 1 9 7
M  V30 3 1 10 1
M  V30 4 2 12 7
M  V30 5 2 14 11
M  V30 6 1 15 5
M  V30 7 1 15 8
M  V30 8 1 16 11
M  V30 9 1 16 15
M  V30 10 1 17 1
M  V30 11 2 17 3
M  V30 12 1 17 6
M  V30 13 2 18 1
M  V30 14 1 18 7
M  V30 15 2 19 10
M  V30 16 1 19 12
M  V30 17 1 20 13
M  V30 18 1 21 4
M  V30 19 1 21 12
M  V30 20 1 23 5
M  V30 21 1 23 11
M  V30 22 1 24 18
M  V30 23 1 25 4
M  V30 24 1 25 5
M  V30 25 1 26 2
M  V30 26 1 26 22
M  V30 27 1 27 6
M  V30 28 1 27 20
M  V30 29 1 27 26
M  V30 30 1 28 2
M  V30 31 1 29 2
M  V30 32 1 30 2
M  V30 33 1 4 31 CFG=3
M  V30 34 1 5 32 CFG=3
M  V30 35 1 33 6
M  V30 36 1 34 8
M  V30 37 1 35 9
M  V30 38 1 36 9
M  V30 39 1 37 10
M  V30 40 1 38 13
M  V30 41 1 15 39 CFG=3
M  V30 42 1 40 16
M  V30 43 1 41 16
M  V30 44 1 42 19
M  V30 45 1 43 20
M  V30 46 1 44 20
M  V30 47 1 45 22
M  V30 48 1 46 22
M  V30 49 1 47 22
M  V30 50 1 48 24
M  V30 51 1 49 25
M  V30 52 1 50 25
M  V30 53 1 51 26
M  V30 54 1 27 52 CFG=3
M  V30 END BOND
M  V30 END CTAB
M  END
>  <i_epik_Tot_Q>  (1) 
0

>  <i_epik_Tot_abs_Q>  (1) 
0

>  <i_i_glide_confnum>  (1) 
108

>  <i_i_glide_lignum>  (1) 
76

>  <i_i_glide_posenum>  (1) 
292

>  <i_i_glide_rotatable_bonds>  (1) 
10

>  <i_lp_mmshare_version>  (1) 
72125

>  <i_m_source_file_index>  (1) 
48

>  <i_f3d_flags>  (1) 
0

>  <num_sample>  (1) 
100

>  <b_lp_Chiralities_Consistent>  (1) 
1

>  <r_epik_Charging_Adjusted_Penalty>  (1) 
0.019901406152345185

>  <r_epik_Ionization_Penalty>  (1) 
0.019911706661848872

>  <r_epik_Ionization_Penalty_Charging>  (1) 
0

>  <r_epik_Ionization_Penalty_Neutral>  (1) 
0.019911706661848872

>  <r_epik_State_Penalty>  (1) 
0.019901406152345185

>  <r_glide_ring_energy>  (1) 
0

>  <r_i_docking_score>  (1) 
-5.2750281770093368

>  <r_i_glide_ecoul>  (1) 
2.6098100597705955

>  <r_i_glide_eff_state_penalty>  (1) 
0.019901406152345185

>  <r_i_glide_einternal>  (1) 
5.7784949849208722

>  <r_i_glide_emodel>  (1) 
-43.754015248295275

>  <r_i_glide_emodel_strain>  (1) 
1.8028362754950322

>  <r_i_glide_energy>  (1) 
-38.018660148076435

>  <r_i_glide_erotb>  (1) 
0.75018821045154971

>  <r_i_glide_esite>  (1) 
0

>  <r_i_glide_evdw>  (1) 
-40.62847020784703

>  <r_i_glide_gscore>  (1) 
-5.2949295831616823

>  <r_i_glide_gscore_strain>  (1) 
0

>  <r_i_glide_hbond>  (1) 
-0.015408121428041941

>  <r_i_glide_ligand_efficiency>  (1) 
-0.19537141396330876

>  <r_i_glide_ligand_efficiency_ln>  (1) 
-1.2279395939715418

>  <r_i_glide_ligand_efficiency_sa>  (1) 
-0.58611424188992645

>  <r_i_glide_lipo>  (1) 
-2.3418316972515187

>  <r_i_glide_metal>  (1) 
-0

>  <r_i_glide_rewards>  (1) 
-2.0479259735069086

>  <r_lp_Energy>  (1) 
10.170142999999999

>  <r_lp_tautomer_probability>  (1) 
1

>  <s_epik_cmdline>  (1) 
J2VwaWtfcHl0aG9uJywgJy1waHQnLCAnMS4wJywgJy1waCcsICc3LjQnLCAnLXRuJywgJzgnLCAnLW1hJywgJzUwMCcsICctaW1hZScsICc8aW5maWxlLm1hZT4nLCAnLW9tYWUnLCAnPG91dGZpbGUubWFlPic=

>  <s_epik_input>  (1) 
W0NIM11bQ0hdKFtDSDNdKVtDQEhdKFtDSDJdW09IXSlbTkhdQyg9TyljKGMxW09IXSlbY0hdW2NIXWMoYzEyKU9bQ0BASF0oW0NIMl0yKVtDSDJdW0NAQEhdM1tDQEBIXShbT0hdKVtDSDJdQyg9TylTMw==

>  <s_glide_docking_method>  (1) 
confgen

>  <s_i_glide_gridfile>  (1) 
gpcr_drd2_6luq_protein_autoprepared_prepared

>  <s_lp_Force_Field>  (1) 
S-OPLS

>  <s_lp_Variant>  (1) 
DiffSBDD_47-1

>  <s_m_source_file>  (1) 
generated_generic_title2_ligand_DiffSBDD_2026-06-23_prepared.sdf

>  <GenAI_Model>  (1) 
DiffSBDD

>  <Protein>  (1) 
generic_title2

$$$$
DiffSBDD_82
     RDKit          3D

  0  0  0  0  0  0  0  0  0  0999 V3000
M  V30 BEGIN CTAB
M  V30 COUNTS 74 80 0 0 1
M  V30 BEGIN ATOM
M  V30 1 N 7.777555 6.543731 -14.301128 0
M  V30 2 C 8.754612 6.668019 -12.032526 0
M  V30 3 N 7.950517 3.706600 -14.313744 0
M  V30 4 O 9.022861 1.047602 -18.921082 0
M  V30 5 O 5.734088 2.468103 -18.808046 0
M  V30 6 C 10.022267 6.761650 -8.660603 0
M  V30 7 C 9.727103 5.910709 -11.113624 0 CFG=1
M  V30 8 C 8.280387 5.815064 -13.220013 0
M  V30 9 C 7.677976 5.572081 -16.971532 0
M  V30 10 N 6.617108 6.406433 -16.386751 0
M  V30 11 C 6.962488 2.234926 -16.823116 0
M  V30 12 C 6.495516 6.330413 -14.921995 0 CFG=1
M  V30 13 C 8.026023 2.254989 -14.466322 0
M  V30 14 C 8.944801 5.893890 -8.100334 0
M  V30 15 C 11.709058 8.389655 -8.091495 0
M  V30 16 C 9.016363 3.691786 -12.084632 0
M  V30 17 C 5.390202 6.014757 -17.047161 0
M  V30 18 C 6.827640 7.591075 -14.152148 0 CFG=1
M  V30 19 C 12.130132 8.438201 -9.434606 0
M  V30 20 O 12.319066 9.168126 -7.147114 0
M  V30 21 C 7.634835 1.221984 -19.106720 0
M  V30 22 C 10.410042 6.793935 -10.032339 0
M  V30 23 C 11.479597 7.638823 -10.406291 0
M  V30 24 C 7.724174 3.788232 -18.866738 0
M  V30 25 C 5.777882 5.581419 -18.462071 0
M  V30 26 C 7.068610 2.455902 -18.362177 0 CFG=1
M  V30 27 O 8.388848 0.495243 -16.087704 0
M  V30 28 N 10.155219 7.412317 -6.467479 0
M  V30 29 C 7.255791 5.201397 -18.387661 0 CFG=1
M  V30 30 C 10.647342 7.535264 -7.739695 0
M  V30 31 C 5.398042 7.153201 -14.273092 0
M  V30 32 O 11.101887 6.883305 -5.571415 0
M  V30 33 C 9.044711 6.431562 -6.588802 0
M  V30 34 C 8.201084 1.887464 -15.973422 0 CFG=1
M  V30 35 C 9.130897 4.525834 -10.784955 0
M  V30 36 C 8.391642 4.467617 -13.235472 0
M  V30 37 H 7.880956 6.962993 -11.449583 0
M  V30 38 H 9.229114 7.581207 -12.394207 0
M  V30 39 H 9.480328 1.633243 -19.505550 0
M  V30 40 H 5.240702 1.824510 -18.328919 0
M  V30 41 H 10.575323 5.678736 -11.761086 0
M  V30 42 H 7.823940 4.673156 -16.417144 0
M  V30 43 H 8.667208 6.011073 -16.956503 0
M  V30 44 H 6.195379 1.487059 -16.613166 0
M  V30 45 H 6.575612 3.141144 -16.402589 0
M  V30 46 H 8.830640 1.815771 -13.879202 0
M  V30 47 H 7.102199 1.829160 -14.074624 0
M  V30 48 H 7.958579 6.001188 -8.545463 0
M  V30 49 H 9.234230 4.849537 -8.121643 0
M  V30 50 H 8.494178 2.760470 -11.953201 0
M  V30 51 H 4.989590 5.190227 -16.485355 0
M  V30 52 H 4.647840 6.811858 -17.035669 0
M  V30 53 H 7.161651 8.432849 -14.759492 0
M  V30 54 H 12.944246 9.088224 -9.722376 0
M  V30 55 H 13.156993 9.498061 -7.429005 0
M  V30 56 H 7.128486 0.309161 -18.785706 0
M  V30 57 H 7.461786 1.306913 -20.181025 0
M  V30 58 H 11.803819 7.667664 -11.435521 0
M  V30 59 H 8.794875 3.727993 -18.677244 0
M  V30 60 H 7.640100 3.796829 -19.952428 0
M  V30 61 H 5.650616 6.425576 -19.139151 0
M  V30 62 H 5.133998 4.795490 -18.838265 0
M  V30 63 H 8.581748 0.299277 -16.995764 0
M  V30 64 H 7.767107 5.914957 -19.034462 0
M  V30 65 H 4.786232 7.827968 -14.858370 0
M  V30 66 H 4.973514 6.757234 -13.361307 0
M  V30 67 H 11.399288 6.076551 -5.963527 0
M  V30 68 H 9.121367 5.619338 -5.875401 0
M  V30 69 H 8.158093 7.009239 -6.369709 0
M  V30 70 H 9.083270 2.383052 -16.374901 0
M  V30 71 H 9.756128 3.975000 -10.089149 0
M  V30 72 H 8.148247 4.628782 -10.319061 0
M  V30 73 H 10.020277 3.412383 -12.405710 0
M  V30 74 H 7.526034 4.202325 -15.083280 0
M  V30 END ATOM
M  V30 BEGIN BOND
M  V30 1 1 7 2
M  V30 2 1 8 1
M  V30 3 1 8 2
M  V30 4 1 10 9
M  V30 5 1 12 1
M  V30 6 1 12 10
M  V30 7 1 13 3
M  V30 8 1 14 6
M  V30 9 1 17 10
M  V30 10 1 18 1
M  V30 11 1 18 12
M  V30 12 1 19 15
M  V30 13 1 20 15
M  V30 14 1 21 4
M  V30 15 2 22 6
M  V30 16 1 22 7
M  V30 17 2 23 19
M  V30 18 1 23 22
M  V30 19 1 25 17
M  V30 20 1 26 5 CFG=3
M  V30 21 1 26 11
M  V30 22 1 26 21
M  V30 23 1 26 24
M  V30 24 1 29 9
M  V30 25 1 29 24
M  V30 26 1 29 25
M  V30 27 1 30 6
M  V30 28 2 30 15
M  V30 29 1 30 28
M  V30 30 1 12 31 CFG=3
M  V30 31 1 31 18
M  V30 32 1 32 28
M  V30 33 1 33 14
M  V30 34 1 33 28
M  V30 35 1 34 11
M  V30 36 1 34 13
M  V30 37 1 34 27
M  V30 38 1 35 7
M  V30 39 1 35 16
M  V30 40 1 36 3
M  V30 41 2 36 8
M  V30 42 1 36 16
M  V30 43 1 37 2
M  V30 44 1 38 2
M  V30 45 1 39 4
M  V30 46 1 40 5
M  V30 47 1 7 41 CFG=3
M  V30 48 1 42 9
M  V30 49 1 43 9
M  V30 50 1 44 11
M  V30 51 1 45 11
M  V30 52 1 46 13
M  V30 53 1 47 13
M  V30 54 1 48 14
M  V30 55 1 49 14
M  V30 56 1 50 16
M  V30 57 1 51 17
M  V30 58 1 52 17
M  V30 59 1 18 53 CFG=3
M  V30 60 1 54 19
M  V30 61 1 55 20
M  V30 62 1 56 21
M  V30 63 1 57 21
M  V30 64 1 58 23
M  V30 65 1 59 24
M  V30 66 1 60 24
M  V30 67 1 61 25
M  V30 68 1 62 25
M  V30 69 1 63 27
M  V30 70 1 29 64 CFG=3
M  V30 71 1 65 31
M  V30 72 1 66 31
M  V30 73 1 67 32
M  V30 74 1 68 33
M  V30 75 1 69 33
M  V30 76 1 34 70 CFG=3
M  V30 77 1 71 35
M  V30 78 1 72 35
M  V30 79 1 73 16
M  V30 80 1 74 3
M  V30 END BOND
M  V30 END CTAB
M  END
>  <i_epik_Tot_Q>  (1) 
0

>  <i_epik_Tot_abs_Q>  (1) 
0

>  <i_i_glide_confnum>  (1) 
8

>  <i_i_glide_lignum>  (1) 
146

>  <i_i_glide_posenum>  (1) 
288

>  <i_i_glide_rotatable_bonds>  (1) 
7

>  <i_lp_mmshare_version>  (1) 
72125

>  <i_m_source_file_index>  (1) 
83

>  <i_f3d_flags>  (1) 
0

>  <num_sample>  (1) 
100

>  <b_lp_Chiralities_Consistent>  (1) 
1

>  <r_epik_Charging_Adjusted_Penalty>  (1) 
8.6093729987814029e-06

>  <r_epik_Ionization_Penalty>  (1) 
4.205837022639483

>  <r_epik_Ionization_Penalty_Charging>  (1) 
8.6093729987814029e-06

>  <r_epik_Ionization_Penalty_Neutral>  (1) 
4.2058284132664845

>  <r_epik_State_Penalty>  (1) 
-0

>  <r_glide_ring_energy>  (1) 
0

>  <r_i_docking_score>  (1) 
-5.2712019305955113

>  <r_i_glide_ecoul>  (1) 
-2.4083716433528135

>  <r_i_glide_eff_state_penalty>  (1) 
-0

>  <r_i_glide_einternal>  (1) 
14.698487322045324

>  <r_i_glide_emodel>  (1) 
-19.111613108745487

>  <r_i_glide_emodel_strain>  (1) 
1.64534335535987

>  <r_i_glide_energy>  (1) 
-27.160350778317408

>  <r_i_glide_erotb>  (1) 
0.16415830312656554

>  <r_i_glide_esite>  (1) 
0

>  <r_i_glide_evdw>  (1) 
-24.751979134964596

>  <r_i_glide_gscore>  (1) 
-5.2712019305955113

>  <r_i_glide_gscore_strain>  (1) 
0

>  <r_i_glide_hbond>  (1) 
0

>  <r_i_glide_ligand_efficiency>  (1) 
-0.14642227584987533

>  <r_i_glide_ligand_efficiency_ln>  (1) 
-1.1500338498374434

>  <r_i_glide_ligand_efficiency_sa>  (1) 
-0.48347570247386901

>  <r_i_glide_lipo>  (1) 
-2.4093285771409003

>  <r_i_glide_metal>  (1) 
-0

>  <r_i_glide_rewards>  (1) 
-1.4271769533300236

>  <r_lp_Energy>  (1) 
33.143476

>  <r_lp_tautomer_probability>  (1) 
1

>  <s_epik_Chemistry_Notes>  (1) 
This compound has an imine and may undergo hydrolysis. This compound has a N-S or N-O group and may undergo hydrolysis at high or low pH.

>  <s_epik_cmdline>  (1) 
J2VwaWtfcHl0aG9uJywgJy1waHQnLCAnMS4wJywgJy1waCcsICc3LjQnLCAnLXRuJywgJzgnLCAnLW1hJywgJzUwMCcsICctaW1hZScsICc8aW5maWxlLm1hZT4nLCAnLW9tYWUnLCAnPG91dGZpbGUubWFlPic=

>  <s_epik_input>  (1) 
W0NIMl0xW0NIMl1OMltDSDJdW0NASF0xW0NIMl1bQ0BAXShbT0hdKShbQ0gyXVtPSF0pW0NIMl1bQ0BIXShbT0hdKVtDSDJdL049QyhcW0NAQEhdM04oQzI0NSlbQ0BASF00W0NIMl01KVtDSDJdW0NIMl1bQ0BASF0oW0NIMl0zKWM2W2NIXVtjSF1jKFtPSF0pYyhjNjcpTihbT0hdKVtDSDJdW0NIMl03

>  <s_glide_docking_method>  (1) 
confgen

>  <s_i_glide_gridfile>  (1) 
gpcr_drd2_6luq_protein_autoprepared_prepared

>  <s_lp_Force_Field>  (1) 
S-OPLS

>  <s_lp_Variant>  (1) 
DiffSBDD_82-1

>  <s_m_source_file>  (1) 
generated_generic_title2_ligand_DiffSBDD_2026-06-23_prepared.sdf

>  <GenAI_Model>  (1) 
DiffSBDD

>  <Protein>  (1) 
generic_title2

$$$$
DiffSBDD_53
     RDKit          3D

  0  0  0  0  0  0  0  0  0  0999 V3000
M  V30 BEGIN CTAB
M  V30 COUNTS 73 75 0 0 1
M  V30 BEGIN ATOM
M  V30 1 C 8.175347 0.537125 -15.475484 0
M  V30 2 C 11.453439 8.127705 -10.587905 0
M  V30 3 O 8.175337 -0.009517 -14.375094 0
M  V30 4 S 9.830071 7.488497 -11.108392 0
M  V30 5 C 11.615486 6.445214 -6.394709 0
M  V30 6 C 9.255382 5.848343 -13.167517 0
M  V30 7 C 6.310941 3.951671 -13.047780 0
M  V30 8 C 10.191961 6.444548 -12.474202 0
M  V30 9 C 11.656359 9.029395 -6.202898 0
M  V30 10 C 10.560436 7.895405 -8.185518 0
M  V30 11 C 9.963586 0.940149 -18.219414 0
M  V30 12 C 5.513941 8.110116 -15.882476 0
M  V30 13 C 8.490383 0.932407 -17.767222 0 CFG=1
M  V30 14 C 8.242304 -0.249211 -16.756791 0
M  V30 15 N 8.122552 1.837595 -15.665489 0
M  V30 16 C 11.851715 9.154925 -4.703068 0
M  V30 17 C 6.579753 2.951756 -14.180475 0
M  V30 18 C 6.838395 5.349215 -13.402859 0 CFG=1
M  V30 19 C 8.629969 4.227429 -14.933688 0 CFG=2
M  V30 20 C 6.503419 7.357148 -14.988917 0
M  V30 21 C 10.881657 7.769499 -6.689913 0
M  V30 22 C 8.822890 3.573155 -17.333405 0
M  V30 23 C 11.780872 8.016965 -9.105788 0
M  V30 24 C 8.042932 2.827077 -14.570613 0 CFG=2
M  V30 25 C 8.062385 2.269429 -17.042635 0 CFG=1
M  V30 26 C 9.542708 7.653196 -5.984748 0
M  V30 27 C 13.031872 9.405686 -4.121830 0
M  V30 28 C 8.302776 5.233182 -13.830669 0
M  V30 29 C 5.908374 6.075784 -14.400343 0
M  V30 30 C 8.333700 4.666682 -16.377865 0
M  V30 31 H 12.253183 7.691547 -11.184416 0
M  V30 32 H 11.452878 9.189740 -10.785007 0
M  V30 33 H 11.040453 5.590314 -6.751740 0
M  V30 34 H 11.780366 6.297704 -5.326588 0
M  V30 35 H 12.575369 6.390425 -6.882200 0
M  V30 36 H 5.243823 3.995809 -12.827936 0
M  V30 37 H 6.798543 3.599563 -12.137534 0
M  V30 38 H 11.237598 6.321030 -12.711797 0
M  V30 39 H 11.115707 9.923518 -6.513504 0
M  V30 40 H 12.635149 9.086730 -6.678026 0
M  V30 41 H 9.906666 8.754135 -8.349414 0
M  V30 42 H 9.978332 7.017645 -8.469853 0
M  V30 43 H 10.638076 1.104317 -17.377604 0
M  V30 44 H 10.149615 1.719904 -18.958405 0
M  V30 45 H 10.237538 -0.009562 -18.678653 0
M  V30 46 H 5.963159 9.018927 -16.284693 0
M  V30 47 H 4.615742 8.391227 -15.331861 0
M  V30 48 H 5.206845 7.492084 -16.726463 0
M  V30 49 H 7.869080 0.789622 -18.652298 0
M  V30 50 H 9.040670 -0.991282 -16.738394 0
M  V30 51 H 7.289030 -0.748332 -16.929064 0
M  V30 52 H 10.975766 9.035743 -4.088978 0
M  V30 53 H 6.136463 1.982254 -13.947180 0
M  V30 54 H 6.175403 3.312654 -15.109817 0
M  V30 55 H 6.809160 5.945895 -12.487031 0
M  V30 56 H 9.714927 4.192760 -14.950057 0
M  V30 57 H 7.374696 7.103797 -15.582828 0
M  V30 58 H 6.864941 7.990128 -14.182636 0
M  V30 59 H 9.897482 3.438144 -17.205829 0
M  V30 60 H 8.664939 3.875873 -18.368268 0
M  V30 61 H 12.369083 8.894430 -8.839980 0
M  V30 62 H 12.456551 7.190226 -8.970543 0
M  V30 63 H 8.575419 2.452792 -13.694807 0
M  V30 64 H 7.006396 2.439801 -17.258194 0
M  V30 65 H 8.982318 8.587678 -5.986828 0
M  V30 66 H 9.769440 7.347822 -4.964347 0
M  V30 67 H 8.905376 6.879814 -6.416333 0
M  V30 68 H 13.927509 9.533696 -4.713314 0
M  V30 69 H 13.117147 9.487423 -3.047776 0
M  V30 70 H 5.609146 5.423458 -15.216711 0
M  V30 71 H 4.981660 6.320447 -13.880120 0
M  V30 72 H 7.273945 4.846375 -16.543127 0
M  V30 73 H 8.855297 5.596719 -16.599424 0
M  V30 END ATOM
M  V30 BEGIN BOND
M  V30 1 2 3 1
M  V30 2 1 4 2
M  V30 3 1 8 4
M  V30 4 2 8 6
M  V30 5 1 13 11
M  V30 6 1 14 1
M  V30 7 1 14 13
M  V30 8 1 15 1
M  V30 9 1 16 9
M  V30 10 1 17 7
M  V30 11 1 18 7
M  V30 12 1 20 12
M  V30 13 1 21 5
M  V30 14 1 21 9
M  V30 15 1 21 10
M  V30 16 1 23 2
M  V30 17 1 23 10
M  V30 18 1 24 15
M  V30 19 1 24 17
M  V30 20 1 24 19
M  V30 21 1 25 13
M  V30 22 1 25 15
M  V30 23 1 25 22
M  V30 24 1 26 21
M  V30 25 2 27 16
M  V30 26 2 28 6
M  V30 27 1 28 18
M  V30 28 1 28 19
M  V30 29 1 29 18
M  V30 30 1 29 20
M  V30 31 1 30 19
M  V30 32 1 30 22
M  V30 33 1 31 2
M  V30 34 1 32 2
M  V30 35 1 33 5
M  V30 36 1 34 5
M  V30 37 1 35 5
M  V30 38 1 36 7
M  V30 39 1 37 7
M  V30 40 1 38 8
M  V30 41 1 39 9
M  V30 42 1 40 9
M  V30 43 1 41 10
M  V30 44 1 42 10
M  V30 45 1 43 11
M  V30 46 1 44 11
M  V30 47 1 45 11
M  V30 48 1 46 12
M  V30 49 1 47 12
M  V30 50 1 48 12
M  V30 51 1 13 49 CFG=3
M  V30 52 1 50 14
M  V30 53 1 51 14
M  V30 54 1 52 16
M  V30 55 1 53 17
M  V30 56 1 54 17
M  V30 57 1 18 55 CFG=1
M  V30 58 1 19 56 CFG=3
M  V30 59 1 57 20
M  V30 60 1 58 20
M  V30 61 1 59 22
M  V30 62 1 60 22
M  V30 63 1 61 23
M  V30 64 1 62 23
M  V30 65 1 24 63 CFG=1
M  V30 66 1 25 64 CFG=3
M  V30 67 1 65 26
M  V30 68 1 66 26
M  V30 69 1 67 26
M  V30 70 1 68 27
M  V30 71 1 69 27
M  V30 72 1 70 29
M  V30 73 1 71 29
M  V30 74 1 72 30
M  V30 75 1 73 30
M  V30 END BOND
M  V30 END CTAB
M  END
>  <i_epik_Tot_Q>  (1) 
0

>  <i_epik_Tot_abs_Q>  (1) 
0

>  <i_i_glide_confnum>  (1) 
306

>  <i_i_glide_lignum>  (1) 
86

>  <i_i_glide_posenum>  (1) 
137

>  <i_i_glide_rotatable_bonds>  (1) 
9

>  <i_lp_mmshare_version>  (1) 
72125

>  <i_m_source_file_index>  (1) 
54

>  <i_f3d_flags>  (1) 
0

>  <num_sample>  (1) 
100

>  <b_lp_Chiralities_Consistent>  (1) 
1

>  <r_epik_Charging_Adjusted_Penalty>  (1) 
0

>  <r_epik_Ionization_Penalty>  (1) 
8.5702257649792976e-08

>  <r_epik_Ionization_Penalty_Charging>  (1) 
0

>  <r_epik_Ionization_Penalty_Neutral>  (1) 
8.5702257649792976e-08

>  <r_epik_State_Penalty>  (1) 
-0

>  <r_glide_ring_energy>  (1) 
0

>  <r_i_docking_score>  (1) 
-5.2683193134703821

>  <r_i_glide_ecoul>  (1) 
1.0957015537671007

>  <r_i_glide_eff_state_penalty>  (1) 
-0

>  <r_i_glide_einternal>  (1) 
5.5282717000085739

>  <r_i_glide_emodel>  (1) 
-27.873174747758867

>  <r_i_glide_emodel_strain>  (1) 
2.8248790556523602

>  <r_i_glide_energy>  (1) 
-25.914953232516542

>  <r_i_glide_erotb>  (1) 
0.86106388295804615

>  <r_i_glide_esite>  (1) 
0

>  <r_i_glide_evdw>  (1) 
-27.010654786283641

>  <r_i_glide_gscore>  (1) 
-5.2683193134703821

>  <r_i_glide_gscore_strain>  (1) 
0

>  <r_i_glide_hbond>  (1) 
0

>  <r_i_glide_ligand_efficiency>  (1) 
-0.17561064378234606

>  <r_i_glide_ligand_efficiency_ln>  (1) 
-1.1970195509570054

>  <r_i_glide_ligand_efficiency_sa>  (1) 
-0.54566310075198965

>  <r_i_glide_lipo>  (1) 
-3.3152434794690766

>  <r_i_glide_metal>  (1) 
-0

>  <r_i_glide_rewards>  (1) 
-1.6279622107102338

>  <r_lp_Energy>  (1) 
0.63202399999999992

>  <r_lp_tautomer_probability>  (1) 
1

>  <s_epik_cmdline>  (1) 
J2VwaWtfcHl0aG9uJywgJy1waHQnLCAnMS4wJywgJy1waCcsICc3LjQnLCAnLXRuJywgJzgnLCAnLW1hJywgJzUwMCcsICctaW1hZScsICc8aW5maWxlLm1hZT4nLCAnLW9tYWUnLCAnPG91dGZpbGUubWFlPic=

>  <s_epik_input>  (1) 
Tz1DMVtDSDJdW0NASF0oW0NIM10pW0NAQEhdMltDSDJdW0NIMl1bQ0BIXShbQ0BASF0zTjEyKUMoW0NASF0oW0NIMl1bQ0gyXTMpW0NIMl1bQ0gyXVtDSDNdKT1DPVtDSF1TW0NIMl1bQ0gyXVtDSDJdQyhbQ0gzXSkoW0NIM10pW0NIMl1bQ0hdPVtDSDJd

>  <s_glide_docking_method>  (1) 
confgen

>  <s_i_glide_gridfile>  (1) 
gpcr_drd2_6luq_protein_autoprepared_prepared

>  <s_lp_Force_Field>  (1) 
S-OPLS

>  <s_lp_Variant>  (1) 
DiffSBDD_53-1

>  <s_m_source_file>  (1) 
generated_generic_title2_ligand_DiffSBDD_2026-06-23_prepared.sdf

>  <GenAI_Model>  (1) 
DiffSBDD

>  <Protein>  (1) 
generic_title2

$$$$
DiffSBDD_88
     RDKit          3D

  0  0  0  0  0  0  0  0  0  0999 V3000
M  V30 BEGIN CTAB
M  V30 COUNTS 37 38 0 0 1
M  V30 BEGIN ATOM
M  V30 1 C 6.844842 6.741094 -12.576942 0 CFG=1
M  V30 2 F 7.276124 7.746517 -14.648602 0
M  V30 3 C 8.980132 5.454904 -9.386594 0
M  V30 4 C 9.597168 5.590223 -7.995448 0
M  V30 5 O 10.175410 7.590227 -12.035041 0
M  V30 6 O 9.121846 7.782605 -7.083070 0
M  V30 7 O 7.211667 7.973592 -11.985025 0
M  V30 8 C 10.055585 7.043941 -7.840269 0 CFG=2
M  V30 9 C 7.397297 4.380969 -13.459175 0
M  V30 10 N 9.589844 6.566960 -10.109627 0
M  V30 11 C 6.319552 7.102874 -13.984098 0 CFG=1
M  V30 12 F 8.013612 5.202544 -15.573213 0
M  V30 13 C 6.949967 4.801579 -14.873846 0 CFG=2
M  V30 14 C 9.641560 6.644956 -11.463660 0
M  V30 15 C 5.441024 6.390227 -16.243337 0
M  V30 16 N 9.048099 5.569302 -12.101110 0
M  V30 17 C 7.881311 5.573273 -12.651632 0
M  V30 18 C 10.175302 7.601283 -9.264573 0
M  V30 19 C 5.868742 5.908206 -14.840251 0 CFG=2
M  V30 20 H 6.001617 6.369837 -11.992818 0
M  V30 21 H 7.897581 5.590202 -9.352962 0
M  V30 22 H 9.202061 4.471731 -9.805547 0
M  V30 23 H 10.483395 4.955448 -7.985022 0
M  V30 24 H 8.934959 5.252419 -7.198182 0
M  V30 25 H 8.252943 7.593916 -7.424953 0
M  V30 26 H 7.095883 7.919435 -11.027337 0
M  V30 27 H 11.014522 7.094098 -7.323073 0
M  V30 28 H 8.188212 3.631941 -13.522968 0
M  V30 29 H 6.567758 3.914312 -12.926876 0
M  V30 30 H 5.480978 7.793911 -13.897978 0
M  V30 31 H 6.575407 3.927349 -15.405580 0
M  V30 32 H 6.284679 6.801777 -16.798786 0
M  V30 33 H 5.018935 5.590230 -16.845722 0
M  V30 34 H 4.683482 7.171483 -16.177034 0
M  V30 35 H 9.646725 8.548763 -9.388630 0
M  V30 36 H 11.222771 7.757117 -9.528224 0
M  V30 37 H 4.987205 5.483048 -14.358713 0
M  V30 END ATOM
M  V30 BEGIN BOND
M  V30 1 1 4 3
M  V30 2 1 7 1
M  V30 3 1 8 4
M  V30 4 1 8 6
M  V30 5 1 10 3
M  V30 6 1 11 1
M  V30 7 1 11 2
M  V30 8 1 13 9
M  V30 9 1 13 12
M  V30 10 2 14 5
M  V30 11 1 14 10
M  V30 12 1 16 14
M  V30 13 1 17 1
M  V30 14 1 17 9
M  V30 15 2 17 16
M  V30 16 1 18 8
M  V30 17 1 18 10
M  V30 18 1 19 11
M  V30 19 1 19 13
M  V30 20 1 19 15
M  V30 21 1 1 20 CFG=1
M  V30 22 1 21 3
M  V30 23 1 22 3
M  V30 24 1 23 4
M  V30 25 1 24 4
M  V30 26 1 25 6
M  V30 27 1 26 7
M  V30 28 1 8 27 CFG=1
M  V30 29 1 28 9
M  V30 30 1 29 9
M  V30 31 1 11 30 CFG=1
M  V30 32 1 13 31 CFG=3
M  V30 33 1 32 15
M  V30 34 1 33 15
M  V30 35 1 34 15
M  V30 36 1 35 18
M  V30 37 1 36 18
M  V30 38 1 19 37 CFG=1
M  V30 END BOND
M  V30 END CTAB
M  END
>  <i_epik_Tot_Q>  (1) 
0

>  <i_epik_Tot_abs_Q>  (1) 
0

>  <i_i_glide_confnum>  (1) 
15

>  <i_i_glide_lignum>  (1) 
160

>  <i_i_glide_posenum>  (1) 
206

>  <i_i_glide_rotatable_bonds>  (1) 
4

>  <i_lp_mmshare_version>  (1) 
72125

>  <i_m_source_file_index>  (1) 
89

>  <i_f3d_flags>  (1) 
0

>  <num_sample>  (1) 
100

>  <b_lp_Chiralities_Consistent>  (1) 
1

>  <r_epik_Charging_Adjusted_Penalty>  (1) 
0.16120785643113181

>  <r_epik_Ionization_Penalty>  (1) 
0.1612079103687071

>  <r_epik_Ionization_Penalty_Charging>  (1) 
0

>  <r_epik_Ionization_Penalty_Neutral>  (1) 
0.1612079103687071

>  <r_epik_State_Penalty>  (1) 
0.16120785643113181

>  <r_glide_ring_energy>  (1) 
0.42650137806607885

>  <r_i_docking_score>  (1) 
-5.2678051871815326

>  <r_i_glide_ecoul>  (1) 
-7.0306663937941254

>  <r_i_glide_eff_state_penalty>  (1) 
0.16120785643113181

>  <r_i_glide_einternal>  (1) 
8.7968512669003722

>  <r_i_glide_emodel>  (1) 
-37.833182841062182

>  <r_i_glide_emodel_strain>  (1) 
0.4098139480125198

>  <r_i_glide_energy>  (1) 
-32.805149038740332

>  <r_i_glide_erotb>  (1) 
0.47132455663783185

>  <r_i_glide_esite>  (1) 
-0.12965801886517939

>  <r_i_glide_evdw>  (1) 
-25.774482644946204

>  <r_i_glide_gscore>  (1) 
-5.429013043612664

>  <r_i_glide_gscore_strain>  (1) 
0

>  <r_i_glide_hbond>  (1) 
-0.32886633031000762

>  <r_i_glide_ligand_efficiency>  (1) 
-0.27725290458850171

>  <r_i_glide_ligand_efficiency_ln>  (1) 
-1.3355017570318082

>  <r_i_glide_ligand_efficiency_sa>  (1) 
-0.73982210771690615

>  <r_i_glide_lipo>  (1) 
-0.69737348667333243

>  <r_i_glide_metal>  (1) 
-0

>  <r_i_glide_rewards>  (1) 
-2.4011156730855472

>  <r_lp_Energy>  (1) 
17.035233999999999

>  <s_epik_Chemistry_Notes>  (1) 
This compound has an imine and may undergo hydrolysis.

>  <s_epik_cmdline>  (1) 
J2VwaWtfcHl0aG9uJywgJy1waHQnLCAnMS4wJywgJy1waCcsICc3LjQnLCAnLXRuJywgJzgnLCAnLW1hJywgJzUwMCcsICctaW1hZScsICc8aW5maWxlLm1hZT4nLCAnLW9tYWUnLCAnPG91dGZpbGUubWFlPic=

>  <s_epik_input>  (1) 
W09IXVtDQEhdMVtDQEBIXShGKVtDQEBIXShbQ0gzXSlbQ0BASF0oRilbQ0gyXUNcMT1OXEMoPU8pTihbQ0gyXTIpW0NIMl1bQ0gyXVtDQEBIXTJbT0hd

>  <s_glide_docking_method>  (1) 
confgen

>  <s_i_glide_gridfile>  (1) 
gpcr_drd2_6luq_protein_autoprepared_prepared

>  <s_lp_Force_Field>  (1) 
S-OPLS

>  <s_lp_Variant>  (1) 
DiffSBDD_88-1

>  <s_m_source_file>  (1) 
generated_generic_title2_ligand_DiffSBDD_2026-06-23_prepared.sdf

>  <GenAI_Model>  (1) 
DiffSBDD

>  <Protein>  (1) 
generic_title2

$$$$
DiffSBDD_68
     RDKit          3D

  0  0  0  0  0  0  0  0  0  0999 V3000
M  V30 BEGIN CTAB
M  V30 COUNTS 43 45 0 0 1
M  V30 BEGIN ATOM
M  V30 1 C 6.712886 4.440755 -18.776351 0
M  V30 2 C 9.275212 5.677984 -11.859972 0
M  V30 3 C 7.661874 4.940872 -19.875112 0
M  V30 4 C 6.800813 6.025031 -15.272226 0
M  V30 5 C 5.375216 7.036762 -19.265978 0
M  V30 6 N 9.102416 4.213564 -11.956719 0 CHG=1
M  V30 7 C 6.521925 5.436907 -17.640480 0
M  V30 8 C 7.929945 6.391009 -11.658097 0
M  V30 9 C 8.575306 3.726830 -13.247181 0
M  V30 10 F 7.858376 6.127177 -21.865798 0
M  V30 11 C 6.975412 5.112521 -16.343130 0
M  V30 12 C 6.981007 5.858662 -20.899466 0 CFG=2
M  V30 13 C 6.175413 7.273918 -15.524762 0
M  V30 14 C 6.482431 7.190224 -20.322173 0
M  V30 15 C 7.187575 4.276593 -13.588880 0
M  V30 16 N 7.257578 5.691623 -13.963483 0
M  V30 17 C 7.129982 6.716994 -12.931603 0
M  V30 18 C 5.885891 6.678406 -17.875092 0
M  V30 19 C 5.719625 7.590224 -16.814764 0
M  V30 20 H 7.122443 3.519515 -18.360518 0
M  V30 21 H 5.743498 4.163399 -19.192164 0
M  V30 22 H 9.820404 6.071383 -12.719607 0
M  V30 23 H 9.895521 5.868697 -10.984509 0
M  V30 24 H 8.536999 5.422152 -19.436156 0
M  V30 25 H 8.037541 4.071841 -20.416529 0
M  V30 26 H 4.635151 6.301864 -19.584827 0
M  V30 27 H 4.833535 7.981238 -19.198011 0
M  V30 28 H 10.008406 3.785620 -11.828330 0
M  V30 29 H 8.142332 7.348455 -11.185024 0
M  V30 30 H 7.310091 5.839863 -10.949279 0
M  V30 31 H 9.277680 3.990234 -14.037245 0
M  V30 32 H 8.536646 2.637987 -13.199084 0
M  V30 33 H 7.461914 4.164879 -16.174012 0
M  V30 34 H 6.158836 5.331104 -21.384859 0
M  V30 35 H 6.032650 7.987207 -14.730683 0
M  V30 36 H 7.313881 7.774936 -19.929518 0
M  V30 37 H 6.077302 7.771937 -21.151041 0
M  V30 38 H 6.538274 4.181379 -12.717318 0
M  V30 39 H 6.703929 3.652483 -14.338092 0
M  V30 40 H 7.544037 7.648703 -13.319146 0
M  V30 41 H 6.081923 6.897172 -12.686576 0
M  V30 42 H 5.239399 8.538201 -16.991688 0
M  V30 43 H 8.495649 3.907237 -11.209640 0
M  V30 END ATOM
M  V30 BEGIN BOND
M  V30 1 1 3 1
M  V30 2 1 6 2
M  V30 3 1 7 1
M  V30 4 1 8 2
M  V30 5 1 9 6
M  V30 6 2 11 4
M  V30 7 1 11 7
M  V30 8 1 12 3
M  V30 9 1 12 10
M  V30 10 1 13 4
M  V30 11 1 14 5
M  V30 12 1 14 12
M  V30 13 1 15 9
M  V30 14 1 16 4
M  V30 15 1 16 15
M  V30 16 1 17 8
M  V30 17 1 17 16
M  V30 18 1 18 5
M  V30 19 2 18 7
M  V30 20 2 19 13
M  V30 21 1 19 18
M  V30 22 1 20 1
M  V30 23 1 21 1
M  V30 24 1 22 2
M  V30 25 1 23 2
M  V30 26 1 24 3
M  V30 27 1 25 3
M  V30 28 1 26 5
M  V30 29 1 27 5
M  V30 30 1 28 6
M  V30 31 1 29 8
M  V30 32 1 30 8
M  V30 33 1 31 9
M  V30 34 1 32 9
M  V30 35 1 33 11
M  V30 36 1 12 34 CFG=3
M  V30 37 1 35 13
M  V30 38 1 36 14
M  V30 39 1 37 14
M  V30 40 1 38 15
M  V30 41 1 39 15
M  V30 42 1 40 17
M  V30 43 1 41 17
M  V30 44 1 42 19
M  V30 45 1 43 6
M  V30 END BOND
M  V30 END CTAB
M  END
>  <i_epik_Tot_Q>  (1) 
1

>  <i_epik_Tot_abs_Q>  (1) 
1

>  <i_i_glide_confnum>  (1) 
13

>  <i_i_glide_lignum>  (1) 
111

>  <i_i_glide_posenum>  (1) 
312

>  <i_i_glide_rotatable_bonds>  (1) 
1

>  <i_lp_mmshare_version>  (1) 
72125

>  <i_m_source_file_index>  (1) 
69

>  <i_f3d_flags>  (1) 
0

>  <num_sample>  (1) 
100

>  <b_lp_Chiralities_Consistent>  (1) 
1

>  <r_epik_Charging_Adjusted_Penalty>  (1) 
0.015837352336264428

>  <r_epik_Ionization_Penalty>  (1) 
0.015894229435383624

>  <r_epik_Ionization_Penalty_Charging>  (1) 
0.015837352336264428

>  <r_epik_Ionization_Penalty_Neutral>  (1) 
5.6877099119197507e-05

>  <r_epik_State_Penalty>  (1) 
-0

>  <r_glide_ring_energy>  (1) 
0

>  <r_i_docking_score>  (1) 
-5.2663554422785506

>  <r_i_glide_ecoul>  (1) 
-3.2758070400744184

>  <r_i_glide_eff_state_penalty>  (1) 
-0

>  <r_i_glide_einternal>  (1) 
1.5731523246381021

>  <r_i_glide_emodel>  (1) 
-33.90432535435049

>  <r_i_glide_emodel_strain>  (1) 
0.0093748988994377669

>  <r_i_glide_energy>  (1) 
-23.269368823841532

>  <r_i_glide_erotb>  (1) 
0.25598708870304271

>  <r_i_glide_esite>  (1) 
0

>  <r_i_glide_evdw>  (1) 
-19.993561783767113

>  <r_i_glide_gscore>  (1) 
-5.2663554422785506

>  <r_i_glide_gscore_strain>  (1) 
0

>  <r_i_glide_hbond>  (1) 
0

>  <r_i_glide_ligand_efficiency>  (1) 
-0.27717660222518686

>  <r_i_glide_ligand_efficiency_ln>  (1) 
-1.3351342155612367

>  <r_i_glide_ligand_efficiency_sa>  (1) 
-0.73961850236483551

>  <r_i_glide_lipo>  (1) 
-1.919334703368506

>  <r_i_glide_metal>  (1) 
-0

>  <r_i_glide_rewards>  (1) 
-2.1119586824135679

>  <r_lp_Energy>  (1) 
46.335602999999999

>  <r_lp_tautomer_probability>  (1) 
1

>  <s_epik_cmdline>  (1) 
J2VwaWtfcHl0aG9uJywgJy1waHQnLCAnMS4wJywgJy1waCcsICc3LjQnLCAnLXRuJywgJzgnLCAnLW1hJywgJzUwMCcsICctaW1hZScsICc8aW5maWxlLm1hZT4nLCAnLW9tYWUnLCAnPG91dGZpbGUubWFlPic=

>  <s_epik_input>  (1) 
W0NIMl0xW0NIMl1bQ0BIXShGKVtDSDJdW0NIMl1jKGMxMilbY0hdW2NIXWMoW2NIXTIpTjNbQ0gyXVtDSDJdW05IXVtDSDJdW0NIMl1bQ0gyXTM=

>  <s_glide_docking_method>  (1) 
confgen

>  <s_i_glide_gridfile>  (1) 
gpcr_drd2_6luq_protein_autoprepared_prepared

>  <s_lp_Force_Field>  (1) 
S-OPLS

>  <s_lp_Variant>  (1) 
DiffSBDD_68-1

>  <s_m_source_file>  (1) 
generated_generic_title2_ligand_DiffSBDD_2026-06-23_prepared.sdf

>  <GenAI_Model>  (1) 
DiffSBDD

>  <Protein>  (1) 
generic_title2

$$$$
DiffSBDD_89
     RDKit          3D

  0  0  0  0  0  0  0  0  0  0999 V3000
M  V30 BEGIN CTAB
M  V30 COUNTS 79 82 0 0 1
M  V30 BEGIN ATOM
M  V30 1 C 10.950161 7.409610 -5.925329 0
M  V30 2 O 8.639706 1.634132 -19.331166 0
M  V30 3 C 6.210095 -1.348010 -17.034258 0
M  V30 4 C 9.444454 2.477281 -17.248994 0
M  V30 5 C 8.486241 1.706757 -18.112067 0
M  V30 6 C 7.313107 1.006348 -17.405569 0 CFG=1
M  V30 7 F 11.975690 9.847935 -4.955686 0
M  V30 8 C 9.030975 5.152459 -8.188572 0
M  V30 9 C 9.983986 4.581883 -12.273811 0
M  V30 10 C 10.417963 7.873866 -11.126823 0
M  V30 11 F 13.495298 9.590204 -6.418891 0
M  V30 12 F 11.775403 10.770151 -6.785036 0
M  V30 13 C 8.723901 -1.102422 -16.792903 0
M  V30 14 C 7.278599 3.325409 -14.207544 0 CFG=2
M  V30 15 C 10.278213 7.200886 -8.671718 0
M  V30 16 N 7.595512 2.730808 -15.559024 0
M  V30 17 C 4.975384 7.295809 -15.925853 0
M  V30 18 C 7.459224 -0.564050 -17.497268 0
M  V30 19 O 11.317930 7.436168 -4.611529 0
M  V30 20 C 9.223721 5.914976 -10.460530 0
M  V30 21 C 9.964267 6.996501 -10.052711 0
M  V30 22 C 9.038812 5.745677 -11.940965 0 CFG=1
M  V30 23 C 11.051032 8.320953 -8.207026 0
M  V30 24 C 11.374650 8.427081 -6.810002 0
M  V30 25 C 8.737363 4.994330 -9.543972 0
M  V30 26 C 6.980720 1.573094 -15.971028 0
M  V30 27 O 6.175635 0.977929 -15.259808 0
M  V30 28 C 7.524461 4.885747 -14.009364 0 CFG=1
M  V30 29 C 7.926682 2.411507 -13.145683 0
M  V30 30 C 10.157263 6.356820 -6.388599 0
M  V30 31 C 12.178438 9.641794 -6.255135 0
M  V30 32 C 6.756641 5.753837 -15.038175 0 CFG=2
M  V30 33 F 7.550748 6.790237 -15.185005 0
M  V30 34 O 7.555991 -0.941283 -18.863658 0
M  V30 35 C 8.611819 3.417529 -16.393867 0
M  V30 36 C 9.770020 7.105646 -12.357630 0
M  V30 37 C 7.575946 5.553011 -12.563981 0 CFG=1
M  V30 38 C 6.414483 5.123550 -11.634567 0
M  V30 39 C 5.384415 6.373543 -14.745726 0
M  V30 40 C 9.817742 6.245849 -7.744361 0
M  V30 41 H 6.078288 -1.324929 -15.954206 0
M  V30 42 H 5.301030 -0.956566 -17.489648 0
M  V30 43 H 6.282820 -2.404286 -17.298134 0
M  V30 44 H 10.017683 1.778780 -16.640828 0
M  V30 45 H 10.147402 3.032836 -17.872736 0
M  V30 46 H 6.434960 1.267624 -17.997795 0
M  V30 47 H 8.677188 4.425419 -7.500274 0
M  V30 48 H 10.078894 4.329159 -13.321286 0
M  V30 49 H 10.975554 4.870817 -11.985025 0
M  V30 50 H 9.774930 3.676324 -11.710231 0
M  V30 51 H 9.900454 8.790212 -10.965726 0
M  V30 52 H 11.502654 7.979073 -11.168665 0
M  V30 53 H 8.705741 -0.874189 -15.727028 0
M  V30 54 H 8.797553 -2.186448 -16.886030 0
M  V30 55 H 9.643484 -0.688872 -17.206853 0
M  V30 56 H 6.201334 3.219889 -14.059770 0
M  V30 57 H 4.175400 7.990011 -15.667891 0
M  V30 58 H 5.793799 7.933003 -16.258429 0
M  V30 59 H 4.664383 6.702978 -16.786435 0
M  V30 60 H 11.018032 6.678811 -4.131347 0
M  V30 61 H 11.392979 9.075651 -8.901072 0
M  V30 62 H 8.163699 4.148378 -9.880390 0
M  V30 63 H 8.530713 5.058396 -14.349709 0
M  V30 64 H 7.869119 2.843241 -12.159769 0
M  V30 65 H 7.429410 1.443589 -13.079033 0
M  V30 66 H 8.974480 2.208945 -13.345465 0
M  V30 67 H 9.827953 5.599792 -5.698711 0
M  V30 68 H 6.701817 5.273860 -16.010144 0
M  V30 69 H 8.122449 -0.324240 -19.310740 0
M  V30 70 H 8.129823 4.139130 -17.052343 0
M  V30 71 H 9.341623 3.966299 -15.807232 0
M  V30 72 H 10.533240 6.902084 -13.108788 0
M  V30 73 H 9.051143 7.799744 -12.786092 0
M  V30 74 H 7.285052 6.589333 -12.719342 0
M  V30 75 H 6.480419 4.106459 -11.261550 0
M  V30 76 H 6.344652 5.778726 -10.765595 0
M  V30 77 H 5.457479 5.191398 -12.148728 0
M  V30 78 H 4.644196 5.590117 -14.581858 0
M  V30 79 H 5.413853 6.968346 -13.833466 0
M  V30 END ATOM
M  V30 BEGIN BOND
M  V30 1 2 5 2
M  V30 2 1 5 4
M  V30 3 1 6 5
M  V30 4 1 16 14
M  V30 5 1 18 3
M  V30 6 1 18 6
M  V30 7 1 18 13
M  V30 8 1 19 1
M  V30 9 1 21 10
M  V30 10 1 21 15
M  V30 11 2 21 20
M  V30 12 1 22 9 CFG=3
M  V30 13 1 22 20
M  V30 14 2 23 15
M  V30 15 2 24 1
M  V30 16 1 24 23
M  V30 17 2 25 8
M  V30 18 1 25 20
M  V30 19 1 26 6
M  V30 20 1 26 16
M  V30 21 2 27 26
M  V30 22 1 28 14
M  V30 23 1 29 14
M  V30 24 1 30 1
M  V30 25 1 31 7
M  V30 26 1 31 11
M  V30 27 1 31 12
M  V30 28 1 31 24
M  V30 29 1 32 28
M  V30 30 1 33 32
M  V30 31 1 34 18
M  V30 32 1 35 4
M  V30 33 1 35 16
M  V30 34 1 36 10
M  V30 35 1 36 22
M  V30 36 1 37 22
M  V30 37 1 37 28
M  V30 38 1 38 37
M  V30 39 1 39 17
M  V30 40 1 39 32
M  V30 41 1 40 8
M  V30 42 1 40 15
M  V30 43 2 40 30
M  V30 44 1 41 3
M  V30 45 1 42 3
M  V30 46 1 43 3
M  V30 47 1 44 4
M  V30 48 1 45 4
M  V30 49 1 6 46 CFG=3
M  V30 50 1 47 8
M  V30 51 1 48 9
M  V30 52 1 49 9
M  V30 53 1 50 9
M  V30 54 1 51 10
M  V30 55 1 52 10
M  V30 56 1 53 13
M  V30 57 1 54 13
M  V30 58 1 55 13
M  V30 59 1 14 56 CFG=1
M  V30 60 1 57 17
M  V30 61 1 58 17
M  V30 62 1 59 17
M  V30 63 1 60 19
M  V30 64 1 61 23
M  V30 65 1 62 25
M  V30 66 1 28 63 CFG=3
M  V30 67 1 64 29
M  V30 68 1 65 29
M  V30 69 1 66 29
M  V30 70 1 67 30
M  V30 71 1 32 68 CFG=3
M  V30 72 1 69 34
M  V30 73 1 70 35
M  V30 74 1 71 35
M  V30 75 1 72 36
M  V30 76 1 73 36
M  V30 77 1 37 74 CFG=3
M  V30 78 1 75 38
M  V30 79 1 76 38
M  V30 80 1 77 38
M  V30 81 1 78 39
M  V30 82 1 79 39
M  V30 END BOND
M  V30 END CTAB
M  END
>  <i_epik_Tot_Q>  (1) 
0

>  <i_epik_Tot_abs_Q>  (1) 
0

>  <i_i_glide_confnum>  (1) 
187

>  <i_i_glide_lignum>  (1) 
164

>  <i_i_glide_posenum>  (1) 
366

>  <i_i_glide_rotatable_bonds>  (1) 
10

>  <i_lp_mmshare_version>  (1) 
72125

>  <i_m_source_file_index>  (1) 
90

>  <i_f3d_flags>  (1) 
0

>  <num_sample>  (1) 
100

>  <b_lp_Chiralities_Consistent>  (1) 
1

>  <r_epik_Charging_Adjusted_Penalty>  (1) 
0

>  <r_epik_Ionization_Penalty>  (1) 
0.063976020685543381

>  <r_epik_Ionization_Penalty_Charging>  (1) 
0

>  <r_epik_Ionization_Penalty_Neutral>  (1) 
0.063976020685543381

>  <r_epik_State_Penalty>  (1) 
-0

>  <r_glide_ring_energy>  (1) 
0

>  <r_i_docking_score>  (1) 
-5.2662892435651649

>  <r_i_glide_ecoul>  (1) 
-1.2013204135229991

>  <r_i_glide_eff_state_penalty>  (1) 
-0

>  <r_i_glide_einternal>  (1) 
24.319623823438491

>  <r_i_glide_emodel>  (1) 
-18.430032212895057

>  <r_i_glide_emodel_strain>  (1) 
5.0719954013186452

>  <r_i_glide_energy>  (1) 
-25.58030936805752

>  <r_i_glide_erotb>  (1) 
0.30496708774431369

>  <r_i_glide_esite>  (1) 
0

>  <r_i_glide_evdw>  (1) 
-24.37898895453452

>  <r_i_glide_gscore>  (1) 
-5.2662892435651649

>  <r_i_glide_gscore_strain>  (1) 
0.26799885032966131

>  <r_i_glide_hbond>  (1) 
0

>  <r_i_glide_ligand_efficiency>  (1) 
-0.13165723108912913

>  <r_i_glide_ligand_efficiency_ln>  (1) 
-1.1231445156783932

>  <r_i_glide_ligand_efficiency_sa>  (1) 
-0.45026139673693255

>  <r_i_glide_lipo>  (1) 
-2.3251962321888624

>  <r_i_glide_metal>  (1) 
-0

>  <r_i_glide_rewards>  (1) 
-2.1149114396951005

>  <r_lp_Energy>  (1) 
57.567276

>  <r_lp_tautomer_probability>  (1) 
1

>  <s_epik_cmdline>  (1) 
J2VwaWtfcHl0aG9uJywgJy1waHQnLCAnMS4wJywgJy1waCcsICc3LjQnLCAnLXRuJywgJzgnLCAnLW1hJywgJzUwMCcsICctaW1hZScsICc8aW5maWxlLm1hZT4nLCAnLW9tYWUnLCAnPG91dGZpbGUubWFlPic=

>  <s_epik_input>  (1) 
RkMoRikoRiljKFtjSF0xKWMoW09IXSlbY0hdYzJbY0hdW2NIXWMoYzNjMTIpW0NAXShbQ0gzXSkoW0NIMl1bQ0gyXTMpW0NASF0oW0NIM10pW0NASF0oW0NASF0oRilbQ0gyXVtDSDNdKVtDQEhdKFtDSDNdKU4oW0NIMl1bQ0gyXUM0PU8pQyg9TylbQ0BASF00QyhbQ0gzXSkoW0NIM10pW09IXQ==

>  <s_glide_docking_method>  (1) 
confgen

>  <s_i_glide_gridfile>  (1) 
gpcr_drd2_6luq_protein_autoprepared_prepared

>  <s_lp_Force_Field>  (1) 
S-OPLS

>  <s_lp_Variant>  (1) 
DiffSBDD_89-1

>  <s_m_source_file>  (1) 
generated_generic_title2_ligand_DiffSBDD_2026-06-23_prepared.sdf

>  <GenAI_Model>  (1) 
DiffSBDD

>  <Protein>  (1) 
generic_title2

$$$$
DiffSBDD_45
     RDKit          3D

  0  0  0  0  0  0  0  0  0  0999 V3000
M  V30 BEGIN CTAB
M  V30 COUNTS 68 71 0 0 1
M  V30 BEGIN ATOM
M  V30 1 C 10.553629 7.512324 -7.728083 0 CFG=2
M  V30 2 C 12.788137 9.282412 -3.902175 0
M  V30 3 C 7.706478 2.472052 -14.844499 0 CFG=2
M  V30 4 C 10.937361 7.633261 -9.237358 0
M  V30 5 C 11.657797 7.904251 -6.680411 0 CFG=2
M  V30 6 C 8.625850 0.659053 -17.065356 0
M  V30 7 C 9.230691 5.857118 -9.958190 0
M  V30 8 O 10.177039 6.181241 -7.403662 0
M  V30 9 C 11.338862 7.494932 -5.183602 0
M  V30 10 N 6.780972 1.753433 -15.720793 0
M  V30 11 C 6.136569 0.520288 -17.577771 0
M  V30 12 C 9.726314 5.581170 -13.554111 0
M  V30 13 C 9.802448 5.964341 -12.261884 0
M  V30 14 C 8.157160 4.399602 -11.672327 0
M  V30 15 C 5.562601 -0.167136 -16.339304 0
M  V30 16 N 9.030985 5.404581 -11.300108 0
M  V30 17 O 7.166343 4.946485 -15.896237 0
M  V30 18 C 7.272191 1.403102 -17.056726 0 CFG=2
M  V30 19 N 8.822387 4.566041 -13.963615 0
M  V30 20 O 11.775928 9.313883 -6.685087 0
M  V30 21 C 6.237495 0.523831 -15.151520 0
M  V30 22 C 11.775480 7.377922 -2.604712 0
M  V30 23 C 12.313123 7.821862 -3.977804 0
M  V30 24 C 10.722455 7.020679 -11.717600 0
M  V30 25 C 8.838095 6.063015 -6.952935 0
M  V30 26 C 7.134251 2.861375 -13.446233 0
M  V30 27 C 10.340818 6.891930 -10.220961 0
M  V30 28 O 9.478237 3.946120 -16.391992 0
M  V30 29 S 8.308136 4.099469 -15.516282 0
M  V30 30 C 8.046019 3.975609 -12.949929 0
M  V30 31 C 12.027211 8.651906 -9.560496 0
M  V30 32 H 9.723062 8.206244 -7.586193 0
M  V30 33 H 11.946610 9.976315 -3.930420 0
M  V30 34 H 13.331196 9.464132 -2.974811 0
M  V30 35 H 13.474076 9.534757 -4.710917 0
M  V30 36 H 8.575357 1.845073 -14.669806 0
M  V30 37 H 12.574867 7.451222 -7.060334 0
M  V30 38 H 8.872540 0.329877 -18.075262 0
M  V30 39 H 9.443289 1.301400 -16.743300 0
M  V30 40 H 8.616450 -0.229802 -16.433100 0
M  V30 41 H 9.567045 5.018946 -9.349542 0
M  V30 42 H 8.319625 6.301876 -9.570907 0
M  V30 43 H 10.366851 7.923102 -4.948607 0
M  V30 44 H 11.185283 6.415942 -5.158894 0
M  V30 45 H 6.464815 -0.191467 -18.336216 0
M  V30 46 H 5.375011 1.149950 -18.035043 0
M  V30 47 H 10.331363 5.990251 -14.345692 0
M  V30 48 H 7.583555 3.990117 -10.859088 0
M  V30 49 H 5.777883 -1.236456 -16.333800 0
M  V30 50 H 4.478698 -0.050954 -16.297052 0
M  V30 51 H 7.359331 2.301494 -17.669901 0
M  V30 52 H 12.398225 9.562836 -6.019943 0
M  V30 53 H 7.039670 -0.101483 -14.755691 0
M  V30 54 H 5.535470 0.725828 -14.342462 0
M  V30 55 H 11.331805 8.203604 -2.049436 0
M  V30 56 H 11.056370 6.561399 -2.685360 0
M  V30 57 H 12.590123 7.016027 -1.975357 0
M  V30 58 H 13.203327 7.203583 -3.985019 0
M  V30 59 H 10.430580 7.990257 -12.113344 0
M  V30 60 H 11.769743 6.791091 -11.921091 0
M  V30 61 H 8.462068 5.071670 -7.185102 0
M  V30 62 H 8.772491 6.243444 -5.886701 0
M  V30 63 H 8.175504 6.753773 -7.458385 0
M  V30 64 H 7.134446 2.014530 -12.761117 0
M  V30 65 H 6.117023 3.245101 -13.526143 0
M  V30 66 H 12.950850 8.427362 -9.029925 0
M  V30 67 H 12.284767 8.690341 -10.614595 0
M  V30 68 H 11.698698 9.652704 -9.279986 0
M  V30 END ATOM
M  V30 BEGIN BOND
M  V30 1 1 4 1
M  V30 2 1 5 1
M  V30 3 1 8 1
M  V30 4 1 9 5
M  V30 5 1 10 3
M  V30 6 2 13 12
M  V30 7 1 15 11
M  V30 8 1 16 7
M  V30 9 1 16 13
M  V30 10 1 16 14
M  V30 11 1 18 6
M  V30 12 1 18 10
M  V30 13 1 18 11
M  V30 14 1 19 12
M  V30 15 1 20 5
M  V30 16 1 21 10
M  V30 17 1 21 15
M  V30 18 1 23 2
M  V30 19 1 23 9
M  V30 20 1 23 22
M  V30 21 1 24 13
M  V30 22 1 25 8
M  V30 23 1 26 3
M  V30 24 2 27 4
M  V30 25 1 27 7
M  V30 26 1 27 24
M  V30 27 1 29 3
M  V30 28 2 29 17
M  V30 29 1 29 19
M  V30 30 2 29 28
M  V30 31 2 30 14
M  V30 32 1 30 19
M  V30 33 1 30 26
M  V30 34 1 31 4
M  V30 35 1 1 32 CFG=3
M  V30 36 1 33 2
M  V30 37 1 34 2
M  V30 38 1 35 2
M  V30 39 1 3 36 CFG=1
M  V30 40 1 5 37 CFG=3
M  V30 41 1 38 6
M  V30 42 1 39 6
M  V30 43 1 40 6
M  V30 44 1 41 7
M  V30 45 1 42 7
M  V30 46 1 43 9
M  V30 47 1 44 9
M  V30 48 1 45 11
M  V30 49 1 46 11
M  V30 50 1 47 12
M  V30 51 1 48 14
M  V30 52 1 49 15
M  V30 53 1 50 15
M  V30 54 1 18 51 CFG=3
M  V30 55 1 52 20
M  V30 56 1 53 21
M  V30 57 1 54 21
M  V30 58 1 55 22
M  V30 59 1 56 22
M  V30 60 1 57 22
M  V30 61 1 58 23
M  V30 62 1 59 24
M  V30 63 1 60 24
M  V30 64 1 61 25
M  V30 65 1 62 25
M  V30 66 1 63 25
M  V30 67 1 64 26
M  V30 68 1 65 26
M  V30 69 1 66 31
M  V30 70 1 67 31
M  V30 71 1 68 31
M  V30 END BOND
M  V30 END CTAB
M  END
>  <i_epik_Tot_Q>  (1) 
0

>  <i_epik_Tot_abs_Q>  (1) 
0

>  <i_i_glide_confnum>  (1) 
1

>  <i_i_glide_lignum>  (1) 
74

>  <i_i_glide_posenum>  (1) 
164

>  <i_i_glide_rotatable_bonds>  (1) 
7

>  <i_lp_mmshare_version>  (1) 
72125

>  <i_m_source_file_index>  (1) 
46

>  <i_f3d_flags>  (1) 
0

>  <num_sample>  (1) 
100

>  <b_lp_Chiralities_Consistent>  (1) 
1

>  <r_epik_Charging_Adjusted_Penalty>  (1) 
5.5386030856760706e-14

>  <r_epik_Ionization_Penalty>  (1) 
0.0003901755545231811

>  <r_epik_Ionization_Penalty_Charging>  (1) 
5.5386030856760706e-14

>  <r_epik_Ionization_Penalty_Neutral>  (1) 
0.00039017555446779507

>  <r_epik_State_Penalty>  (1) 
-0

>  <r_glide_ring_energy>  (1) 
2.2033446951546671

>  <r_i_docking_score>  (1) 
-5.2640218737419513

>  <r_i_glide_ecoul>  (1) 
-1.0002830054109739

>  <r_i_glide_eff_state_penalty>  (1) 
-0

>  <r_i_glide_einternal>  (1) 
5.1502999584757649

>  <r_i_glide_emodel>  (1) 
-32.836232496286094

>  <r_i_glide_emodel_strain>  (1) 
2.8153029433529326

>  <r_i_glide_energy>  (1) 
-31.209486145149793

>  <r_i_glide_erotb>  (1) 
0.39335991316148761

>  <r_i_glide_esite>  (1) 
0

>  <r_i_glide_evdw>  (1) 
-30.209203139738818

>  <r_i_glide_gscore>  (1) 
-5.2640218737419513

>  <r_i_glide_gscore_strain>  (1) 
0

>  <r_i_glide_hbond>  (1) 
0

>  <r_i_glide_ligand_efficiency>  (1) 
-0.1698071572174823

>  <r_i_glide_ligand_efficiency_ln>  (1) 
-1.1871982554250931

>  <r_i_glide_ligand_efficiency_sa>  (1) 
-0.53342891832058248

>  <r_i_glide_lipo>  (1) 
-2.8411725505236398

>  <r_i_glide_metal>  (1) 
-0

>  <r_i_glide_rewards>  (1) 
-1.1557066285812125

>  <r_lp_Energy>  (1) 
32.319353999999997

>  <r_lp_tautomer_probability>  (1) 
1

>  <s_epik_Chemistry_Notes>  (1) 
This compound has an imine and may undergo hydrolysis.

>  <s_epik_cmdline>  (1) 
J2VwaWtfcHl0aG9uJywgJy1waHQnLCAnMS4wJywgJy1waCcsICc3LjQnLCAnLXRuJywgJzgnLCAnLW1hJywgJzUwMCcsICctaW1hZScsICc8aW5maWxlLm1hZT4nLCAnLW9tYWUnLCAnPG91dGZpbGUubWFlPic=

>  <s_epik_input>  (1) 
W0NIM11bQ0hdKFtDSDNdKVtDSDJdW0NASF0oW09IXSlbQ0BIXShPW0NIM10pL0MoW0NIM10pPUMoW0NIMl0xKVxbQ0gyXU4oQzEyKVtDSF09QzNOKFtDSF09MilTKD1PKSg9TylbQ0BASF0oW0NIMl0zKU40W0NAQEhdKFtDSDNdKVtDSDJdW0NIMl1bQ0gyXTQ=

>  <s_glide_docking_method>  (1) 
confgen

>  <s_i_glide_gridfile>  (1) 
gpcr_drd2_6luq_protein_autoprepared_prepared

>  <s_lp_Force_Field>  (1) 
S-OPLS

>  <s_lp_Variant>  (1) 
DiffSBDD_45-2

>  <s_m_source_file>  (1) 
generated_generic_title2_ligand_DiffSBDD_2026-06-23_prepared.sdf

>  <GenAI_Model>  (1) 
DiffSBDD

>  <Protein>  (1) 
generic_title2

$$$$
DiffSBDD_22
     RDKit          3D

  0  0  0  0  0  0  0  0  0  0999 V3000
M  V30 BEGIN CTAB
M  V30 COUNTS 29 30 0 0 1
M  V30 BEGIN ATOM
M  V30 1 C 9.544747 6.431122 -8.354133 0 CFG=1
M  V30 2 N 9.375441 7.515012 -9.334568 0 CHG=1
M  V30 3 C 9.329507 6.331933 -11.545365 0
M  V30 4 C 12.146917 7.132867 -3.310090 0
M  V30 5 C 9.853578 6.805168 -6.928041 0 CFG=2
M  V30 6 C 11.375410 6.912237 -4.421844 0
M  V30 7 C 10.034322 7.357619 -10.647489 0
M  V30 8 C 10.282825 8.177306 -6.434464 0
M  V30 9 C 11.121495 8.117380 -5.184975 0
M  V30 10 O 8.573965 5.441737 -8.603216 0
M  V30 11 C 10.872808 6.066541 -7.791705 0
M  V30 12 S 12.575483 8.793477 -3.165551 0
M  V30 13 C 11.735461 9.213473 -4.620955 0
M  V30 14 H 8.345271 7.590257 -9.458676 0
M  V30 15 H 9.734322 6.367502 -12.558484 0
M  V30 16 H 9.460975 5.313852 -11.172769 0
M  V30 17 H 8.257037 6.530601 -11.604543 0
M  V30 18 H 12.476297 6.417440 -2.569031 0
M  V30 19 H 9.286032 6.232987 -6.197022 0
M  V30 20 H 10.978725 5.950290 -4.709913 0
M  V30 21 H 10.014869 8.331180 -11.139407 0
M  V30 22 H 11.086260 7.110365 -10.513726 0
M  V30 23 H 10.831496 8.702259 -7.215736 0
M  V30 24 H 9.381490 8.766350 -6.254200 0
M  V30 25 H 7.767397 5.695806 -8.171890 0
M  V30 26 H 11.031802 5.015811 -7.584716 0
M  V30 27 H 11.746562 6.633328 -8.109332 0
M  V30 28 H 11.728161 10.238209 -4.963987 0
M  V30 29 H 9.698736 8.374186 -8.917040 0
M  V30 END ATOM
M  V30 BEGIN BOND
M  V30 1 1 2 1
M  V30 2 1 5 1
M  V30 3 2 6 4
M  V30 4 1 7 2
M  V30 5 1 7 3
M  V30 6 1 8 5
M  V30 7 1 9 6
M  V30 8 1 9 8
M  V30 9 1 1 10 CFG=1
M  V30 10 1 11 1
M  V30 11 1 11 5
M  V30 12 1 12 4
M  V30 13 2 13 9
M  V30 14 1 13 12
M  V30 15 1 14 2
M  V30 16 1 15 3
M  V30 17 1 16 3
M  V30 18 1 17 3
M  V30 19 1 18 4
M  V30 20 1 5 19 CFG=1
M  V30 21 1 20 6
M  V30 22 1 21 7
M  V30 23 1 22 7
M  V30 24 1 23 8
M  V30 25 1 24 8
M  V30 26 1 25 10
M  V30 27 1 26 11
M  V30 28 1 27 11
M  V30 29 1 28 13
M  V30 30 1 29 2
M  V30 END BOND
M  V30 END CTAB
M  END
>  <i_epik_Tot_Q>  (1) 
1

>  <i_epik_Tot_abs_Q>  (1) 
1

>  <i_i_glide_confnum>  (1) 
1

>  <i_i_glide_lignum>  (1) 
40

>  <i_i_glide_posenum>  (1) 
199

>  <i_i_glide_rotatable_bonds>  (1) 
5

>  <i_lp_mmshare_version>  (1) 
72125

>  <i_m_source_file_index>  (1) 
23

>  <i_f3d_flags>  (1) 
0

>  <num_sample>  (1) 
100

>  <b_lp_Chiralities_Consistent>  (1) 
1

>  <r_epik_Charging_Adjusted_Penalty>  (1) 
1.3614070434525585

>  <r_epik_Ionization_Penalty>  (1) 
0.68090079983986818

>  <r_epik_Ionization_Penalty_Charging>  (1) 
0.68070352172627924

>  <r_epik_Ionization_Penalty_Neutral>  (1) 
0.00019727811358890825

>  <r_epik_State_Penalty>  (1) 
0.68070352172627924

>  <r_glide_ring_energy>  (1) 
0

>  <r_i_docking_score>  (1) 
-5.2557040528511063

>  <r_i_glide_ecoul>  (1) 
-10.530391017123996

>  <r_i_glide_eff_state_penalty>  (1) 
0.68070352172627924

>  <r_i_glide_einternal>  (1) 
4.4054460250400194

>  <r_i_glide_emodel>  (1) 
-46.658112952855028

>  <r_i_glide_emodel_strain>  (1) 
0.43232245522137447

>  <r_i_glide_energy>  (1) 
-32.124056550564461

>  <r_i_glide_erotb>  (1) 
1.2424477123756825

>  <r_i_glide_esite>  (1) 
-0.17761616821721316

>  <r_i_glide_evdw>  (1) 
-21.593665533440461

>  <r_i_glide_gscore>  (1) 
-5.9364075745773857

>  <r_i_glide_gscore_strain>  (1) 
0

>  <r_i_glide_hbond>  (1) 
-0.19015347776538094

>  <r_i_glide_ligand_efficiency>  (1) 
-0.40428492714239278

>  <r_i_glide_ligand_efficiency_ln>  (1) 
-1.4742717289519902

>  <r_i_glide_ligand_efficiency_sa>  (1) 
-0.95060917291256752

>  <r_i_glide_lipo>  (1) 
-1.8247880734004338

>  <r_i_glide_metal>  (1) 
-0

>  <r_i_glide_rewards>  (1) 
-2.3270556383294174

>  <r_lp_Energy>  (1) 
5.1831209999999999

>  <s_epik_cmdline>  (1) 
J2VwaWtfcHl0aG9uJywgJy1waHQnLCAnMS4wJywgJy1waCcsICc3LjQnLCAnLXRuJywgJzgnLCAnLW1hJywgJzUwMCcsICctaW1hZScsICc8aW5maWxlLm1hZT4nLCAnLW9tYWUnLCAnPG91dGZpbGUubWFlPic=

>  <s_epik_input>  (1) 
W0NIM11bQ0gyXVtOSF1bQ0BdMShbT0hdKVtDQEBIXShbQ0gyXTEpW0NIMl1jMltjSF1bY0hdc1tjSF0y

>  <s_glide_docking_method>  (1) 
confgen

>  <s_i_glide_gridfile>  (1) 
gpcr_drd2_6luq_protein_autoprepared_prepared

>  <s_lp_Force_Field>  (1) 
S-OPLS

>  <s_lp_Variant>  (1) 
DiffSBDD_22-2

>  <s_m_source_file>  (1) 
generated_generic_title2_ligand_DiffSBDD_2026-06-23_prepared.sdf

>  <GenAI_Model>  (1) 
DiffSBDD

>  <Protein>  (1) 
generic_title2

$$$$
DiffSBDD_8
     RDKit          3D

  0  0  0  0  0  0  0  0  0  0999 V3000
M  V30 BEGIN CTAB
M  V30 COUNTS 61 63 0 0 1
M  V30 BEGIN ATOM
M  V30 1 C 10.086556 6.364435 -9.249787 0
M  V30 2 O 10.523857 6.390228 -6.199927 0
M  V30 3 C 7.126759 2.094911 -13.212991 0
M  V30 4 N 11.369779 8.239818 -5.276422 0
M  V30 5 C 6.825815 6.319424 -15.160944 0 CFG=2
M  V30 6 C 8.223805 4.689263 -13.185793 0
M  V30 7 N 11.775565 8.807467 -8.151088 0
M  V30 8 C 7.169416 6.302408 -18.734495 0
M  V30 9 C 7.327075 4.312755 -17.191595 0
M  V30 10 O 4.756893 6.390216 -16.237708 0
M  V30 11 C 6.365448 3.175598 -13.655510 0
M  V30 12 C 6.217759 7.078875 -19.654107 0
M  V30 13 O 6.159978 5.485841 -14.245698 0
M  V30 14 S 10.194124 6.319660 -11.928900 0
M  V30 15 C 7.036104 7.590206 -14.364721 0
M  V30 16 C 8.836140 6.093226 -13.151485 0 CFG=2
M  V30 17 N 9.375353 6.765539 -10.467904 0 CFG=2 CHG=1
M  V30 18 F 6.597593 0.849093 -13.208887 0
M  V30 19 C 4.191432 7.653282 -16.541607 0
M  V30 20 C 9.542504 8.158447 -10.052627 0
M  V30 21 C 7.826682 7.278636 -13.078161 0
M  V30 22 C 9.630042 7.655441 -8.597757 0 CFG=2
M  V30 23 C 6.481781 5.553303 -17.566468 0 CFG=1
M  V30 24 N 6.173745 6.485814 -16.458366 0
M  V30 25 C 10.791917 7.580494 -6.282340 0
M  V30 26 C 8.436108 2.297283 -12.785024 0
M  V30 27 C 8.978368 3.588941 -12.741563 0
M  V30 28 C 6.908152 4.466521 -13.694511 0
M  V30 29 C 10.511980 8.378188 -7.556956 0 CFG=1
M  V30 30 H 9.720890 5.449394 -8.782694 0
M  V30 31 H 11.170754 6.390230 -9.338524 0
M  V30 32 H 11.596368 7.750516 -4.422861 0
M  V30 33 H 11.566995 9.224811 -5.366175 0
M  V30 34 H 7.805633 5.926398 -15.403709 0
M  V30 35 H 12.326028 9.353586 -7.505701 0
M  V30 36 H 12.350336 8.017325 -8.407095 0
M  V30 37 H 7.968199 6.955105 -18.385036 0
M  V30 38 H 7.664872 5.565694 -19.367750 0
M  V30 39 H 7.330648 3.601293 -18.017255 0
M  V30 40 H 8.368105 4.571503 -16.992850 0
M  V30 41 H 6.941921 3.782183 -16.326033 0
M  V30 42 H 5.375403 3.013998 -13.985024 0
M  V30 43 H 6.738735 7.409909 -20.552711 0
M  V30 44 H 5.383349 6.453903 -19.970851 0
M  V30 45 H 5.813978 7.966803 -19.173573 0
M  V30 46 H 7.526727 8.336399 -14.980262 0
M  V30 47 H 6.051473 7.986873 -14.126537 0
M  V30 48 H 9.385161 5.990227 -14.086495 0
M  V30 49 H 3.113678 7.626387 -16.385035 0
M  V30 50 H 4.603488 8.437573 -15.905657 0
M  V30 51 H 4.347642 7.929580 -17.581246 0
M  V30 52 H 10.471743 8.592944 -10.422381 0
M  V30 53 H 8.694271 8.798825 -10.294555 0
M  V30 54 H 8.347191 8.195126 -12.795707 0
M  V30 55 H 7.123104 7.088966 -12.265692 0
M  V30 56 H 8.641419 7.472488 -8.171831 0
M  V30 57 H 5.534386 5.175341 -17.953309 0
M  V30 58 H 9.020313 1.461969 -12.459244 0
M  V30 59 H 9.986735 3.727358 -12.383957 0
M  V30 60 H 9.955366 9.245061 -7.220185 0
M  V30 61 H 8.390186 6.532979 -10.399733 0
M  V30 END ATOM
M  V30 BEGIN BOND
M  V30 1 2 11 3
M  V30 2 1 12 8
M  V30 3 1 13 5
M  V30 4 1 15 5
M  V30 5 1 16 6
M  V30 6 1 16 14
M  V30 7 1 17 1
M  V30 8 1 17 14
M  V30 9 1 18 3
M  V30 10 1 19 10
M  V30 11 1 20 17
M  V30 12 1 21 15
M  V30 13 1 21 16
M  V30 14 1 22 1
M  V30 15 1 22 20
M  V30 16 1 23 8
M  V30 17 1 23 9
M  V30 18 1 24 5
M  V30 19 1 24 10
M  V30 20 1 24 23
M  V30 21 2 25 2
M  V30 22 1 25 4
M  V30 23 1 26 3
M  V30 24 1 27 6
M  V30 25 2 27 26
M  V30 26 2 28 6
M  V30 27 1 28 11
M  V30 28 1 28 13
M  V30 29 1 29 7
M  V30 30 1 29 22
M  V30 31 1 29 25
M  V30 32 1 30 1
M  V30 33 1 31 1
M  V30 34 1 32 4
M  V30 35 1 33 4
M  V30 36 1 5 34 CFG=3
M  V30 37 1 35 7
M  V30 38 1 36 7
M  V30 39 1 37 8
M  V30 40 1 38 8
M  V30 41 1 39 9
M  V30 42 1 40 9
M  V30 43 1 41 9
M  V30 44 1 42 11
M  V30 45 1 43 12
M  V30 46 1 44 12
M  V30 47 1 45 12
M  V30 48 1 46 15
M  V30 49 1 47 15
M  V30 50 1 16 48 CFG=3
M  V30 51 1 49 19
M  V30 52 1 50 19
M  V30 53 1 51 19
M  V30 54 1 52 20
M  V30 55 1 53 20
M  V30 56 1 54 21
M  V30 57 1 55 21
M  V30 58 1 22 56 CFG=1
M  V30 59 1 23 57 CFG=3
M  V30 60 1 58 26
M  V30 61 1 59 27
M  V30 62 1 29 60 CFG=1
M  V30 63 1 17 61 CFG=3
M  V30 END BOND
M  V30 END CTAB
M  END
>  <i_epik_Tot_Q>  (1) 
1

>  <i_epik_Tot_abs_Q>  (1) 
1

>  <i_i_glide_confnum>  (1) 
260

>  <i_i_glide_lignum>  (1) 
12

>  <i_i_glide_posenum>  (1) 
342

>  <i_i_glide_rotatable_bonds>  (1) 
8

>  <i_lp_mmshare_version>  (1) 
72125

>  <i_m_source_file_index>  (1) 
9

>  <i_f3d_flags>  (1) 
0

>  <num_sample>  (1) 
100

>  <b_lp_Chiralities_Consistent>  (1) 
1

>  <r_epik_Charging_Adjusted_Penalty>  (1) 
0.26758124344448359

>  <r_epik_Ionization_Penalty>  (1) 
0.27573061112751834

>  <r_epik_Ionization_Penalty_Charging>  (1) 
0.017350130917063531

>  <r_epik_Ionization_Penalty_Neutral>  (1) 
0.25838048021045479

>  <r_epik_State_Penalty>  (1) 
0.25023111252742003

>  <r_glide_ring_energy>  (1) 
0

>  <r_i_docking_score>  (1) 
-5.2544414144726588

>  <r_i_glide_ecoul>  (1) 
-3.9148650282343684

>  <r_i_glide_eff_state_penalty>  (1) 
0.25023111252742003

>  <r_i_glide_einternal>  (1) 
7.4231349751687912

>  <r_i_glide_emodel>  (1) 
-37.876593423192084

>  <r_i_glide_emodel_strain>  (1) 
4.5810494033035241

>  <r_i_glide_energy>  (1) 
-30.523656638064367

>  <r_i_glide_erotb>  (1) 
0.54307168116637361

>  <r_i_glide_esite>  (1) 
-0.10000000000000001

>  <r_i_glide_evdw>  (1) 
-26.608791609829996

>  <r_i_glide_gscore>  (1) 
-5.5046725270000785

>  <r_i_glide_gscore_strain>  (1) 
0.14526235082588101

>  <r_i_glide_hbond>  (1) 
-0.052278764051342776

>  <r_i_glide_ligand_efficiency>  (1) 
-0.18118763498181581

>  <r_i_glide_ligand_efficiency_ln>  (1) 
-1.2031338427763276

>  <r_i_glide_ligand_efficiency_sa>  (1) 
-0.55666581956085848

>  <r_i_glide_lipo>  (1) 
-1.8313103347387287

>  <r_i_glide_metal>  (1) 
-0

>  <r_i_glide_rewards>  (1) 
-2.291748125475606

>  <r_lp_Energy>  (1) 
41.451684999999998

>  <r_lp_tautomer_probability>  (1) 
1

>  <s_epik_Chemistry_Notes>  (1) 
This compound contains an acetal/aminal-like group ( X-CH(R)-Y where X, Y are N, S, or O) that may be acid/base labile, releasing an aldehyde. This compound has a N-S or N-O group and may undergo hydrolysis at high or low pH.

>  <s_epik_cmdline>  (1) 
J2VwaWtfcHl0aG9uJywgJy1waHQnLCAnMS4wJywgJy1waCcsICc3LjQnLCAnLXRuJywgJzgnLCAnLW1hJywgJzUwMCcsICctaW1hZScsICc8aW5maWxlLm1hZT4nLCAnLW9tYWUnLCAnPG91dGZpbGUubWFlPic=

>  <s_epik_input>  (1) 
Tz1DKFtOSDJdKVtDQEBIXShbTkgyXSlbQ0hdKFtDSDJdMSlbQ0gyXU4xU1tDQEBIXTJbQ0gyXVtDSDJdW0NASF0oTihPW0NIM10pW0NASF0oW0NIM10pW0NIMl1bQ0gzXSlPYyhjMjMpW2NIXWMoRilbY0hdW2NIXTM=

>  <s_glide_docking_method>  (1) 
confgen

>  <s_i_glide_gridfile>  (1) 
gpcr_drd2_6luq_protein_autoprepared_prepared

>  <s_lp_Force_Field>  (1) 
S-OPLS

>  <s_lp_Variant>  (1) 
DiffSBDD_8-2

>  <s_m_source_file>  (1) 
generated_generic_title2_ligand_DiffSBDD_2026-06-23_prepared.sdf

>  <GenAI_Model>  (1) 
DiffSBDD

>  <Protein>  (1) 
generic_title2

$$$$
DiffSBDD_51
     RDKit          3D

  0  0  0  0  0  0  0  0  0  0999 V3000
M  V30 BEGIN CTAB
M  V30 COUNTS 67 70 0 0 1
M  V30 BEGIN ATOM
M  V30 1 C 13.603101 8.452792 -8.811484 0
M  V30 2 C 8.992428 6.431946 -10.585839 0
M  V30 3 C 11.325206 7.378909 -8.883226 0
M  V30 4 C 9.070759 6.218083 -9.046013 0 CFG=1
M  V30 5 C 8.828412 0.733354 -17.389576 0
M  V30 6 N 9.517958 -0.318148 -19.479005 0
M  V30 7 C 5.968952 3.950829 -12.899586 0
M  V30 8 N 8.058225 5.593492 -11.360926 0
M  V30 9 C 5.733280 0.218824 -15.245280 0
M  V30 10 C 12.226093 8.234603 -8.230803 0
M  V30 11 C 6.723044 0.076769 -16.340324 0
M  V30 12 C 7.423168 -0.970113 -18.433347 0
M  V30 13 C 6.488343 -0.839415 -17.388240 0
M  V30 14 C 8.430947 5.387412 -12.761773 0 CFG=2
M  V30 15 C 7.570507 7.495874 -13.439770 0
M  V30 16 N 6.975377 2.232554 -14.404781 0
M  V30 17 C 9.305861 4.783373 -8.651347 0
M  V30 18 C 6.826550 5.184023 -10.838798 0
M  V30 19 C 6.153176 1.059879 -14.025308 0 CFG=2
M  V30 20 C 7.893818 0.866680 -16.342144 0
M  V30 21 C 9.663245 7.804892 -7.150525 0
M  V30 22 O 4.597484 -0.245359 -15.329565 0
M  V30 23 C 8.157275 1.855330 -15.216312 0
M  V30 24 C 10.663815 0.381363 -19.591051 0
M  V30 25 N 11.674261 0.937152 -19.684041 0
M  V30 26 O 7.687102 6.106300 -13.699166 0
M  V30 27 N 7.160317 3.207445 -13.333078 0
M  V30 28 C 11.846269 8.881315 -7.036677 0
M  V30 29 C 6.834590 0.196197 -12.946593 0
M  V30 30 C 10.043737 7.158070 -8.346473 0
M  V30 31 C 5.878272 4.465213 -11.474639 0
M  V30 32 C 10.565125 8.665816 -6.497776 0
M  V30 33 C 8.459786 3.896360 -13.146271 0
M  V30 34 C 8.594158 -0.184957 -18.437043 0
M  V30 35 H 14.168051 9.190232 -8.243984 0
M  V30 36 H 13.518484 8.790216 -9.844164 0
M  V30 37 H 14.175407 7.529263 -8.816020 0
M  V30 38 H 9.989514 6.284138 -10.994144 0
M  V30 39 H 8.738021 7.473175 -10.784739 0
M  V30 40 H 11.622252 6.885642 -9.792828 0
M  V30 41 H 8.123570 6.390228 -8.571675 0
M  V30 42 H 9.724884 1.336025 -17.388300 0
M  V30 43 H 9.286772 -0.988378 -20.197644 0
M  V30 44 H 5.783416 4.774548 -13.587066 0
M  V30 45 H 5.094413 3.320490 -13.029821 0
M  V30 46 H 7.240575 -1.672992 -19.232535 0
M  V30 47 H 5.591865 -1.443358 -17.390178 0
M  V30 48 H 9.447569 5.763000 -12.881816 0
M  V30 49 H 7.179466 7.990223 -14.327996 0
M  V30 50 H 8.529283 7.947358 -13.184968 0
M  V30 51 H 6.877282 7.679308 -12.618053 0
M  V30 52 H 9.375434 4.707919 -7.574358 0
M  V30 53 H 10.175404 4.330826 -9.117646 0
M  V30 54 H 8.410193 4.247714 -8.933030 0
M  V30 55 H 6.669430 5.507406 -9.823454 0
M  V30 56 H 5.223379 1.412499 -13.585065 0
M  V30 57 H 8.678832 7.638519 -6.734316 0
M  V30 58 H 8.575246 2.744104 -15.687375 0
M  V30 59 H 8.900946 1.401702 -14.562898 0
M  V30 60 H 12.538644 9.540138 -6.533239 0
M  V30 61 H 6.321322 -0.756160 -12.805346 0
M  V30 62 H 6.823956 0.708283 -11.985085 0
M  V30 63 H 7.875598 -0.009776 -13.187639 0
M  V30 64 H 4.975410 4.223208 -10.944134 0
M  V30 65 H 10.274022 9.159536 -5.584085 0
M  V30 66 H 9.009412 3.901289 -14.077362 0
M  V30 67 H 9.057949 3.348879 -12.416823 0
M  V30 END ATOM
M  V30 BEGIN BOND
M  V30 1 1 4 2
M  V30 2 1 8 2
M  V30 3 1 10 1
M  V30 4 2 10 3
M  V30 5 1 11 9
M  V30 6 1 13 11
M  V30 7 2 13 12
M  V30 8 1 14 8
M  V30 9 1 17 4
M  V30 10 1 18 8
M  V30 11 1 19 9
M  V30 12 1 19 16
M  V30 13 1 20 5
M  V30 14 2 20 11
M  V30 15 2 22 9
M  V30 16 1 23 16
M  V30 17 1 23 20
M  V30 18 1 24 6
M  V30 19 3 25 24
M  V30 20 1 26 14
M  V30 21 1 26 15
M  V30 22 1 27 7
M  V30 23 1 27 16
M  V30 24 1 28 10
M  V30 25 1 29 19
M  V30 26 1 30 3
M  V30 27 1 30 4
M  V30 28 2 30 21
M  V30 29 1 31 7
M  V30 30 2 31 18
M  V30 31 1 32 21
M  V30 32 2 32 28
M  V30 33 1 33 14
M  V30 34 1 33 27
M  V30 35 2 34 5
M  V30 36 1 34 6
M  V30 37 1 34 12
M  V30 38 1 35 1
M  V30 39 1 36 1
M  V30 40 1 37 1
M  V30 41 1 38 2
M  V30 42 1 39 2
M  V30 43 1 40 3
M  V30 44 1 4 41 CFG=1
M  V30 45 1 42 5
M  V30 46 1 43 6
M  V30 47 1 44 7
M  V30 48 1 45 7
M  V30 49 1 46 12
M  V30 50 1 47 13
M  V30 51 1 14 48 CFG=1
M  V30 52 1 49 15
M  V30 53 1 50 15
M  V30 54 1 51 15
M  V30 55 1 52 17
M  V30 56 1 53 17
M  V30 57 1 54 17
M  V30 58 1 55 18
M  V30 59 1 19 56 CFG=1
M  V30 60 1 57 21
M  V30 61 1 58 23
M  V30 62 1 59 23
M  V30 63 1 60 28
M  V30 64 1 61 29
M  V30 65 1 62 29
M  V30 66 1 63 29
M  V30 67 1 64 31
M  V30 68 1 65 32
M  V30 69 1 66 33
M  V30 70 1 67 33
M  V30 END BOND
M  V30 END CTAB
M  END
>  <i_epik_Tot_Q>  (1) 
0

>  <i_epik_Tot_abs_Q>  (1) 
0

>  <i_i_glide_confnum>  (1) 
175

>  <i_i_glide_lignum>  (1) 
81

>  <i_i_glide_posenum>  (1) 
384

>  <i_i_glide_rotatable_bonds>  (1) 
6

>  <i_lp_mmshare_version>  (1) 
72125

>  <i_m_source_file_index>  (1) 
52

>  <i_f3d_flags>  (1) 
0

>  <num_sample>  (1) 
100

>  <b_lp_Chiralities_Consistent>  (1) 
1

>  <r_epik_Charging_Adjusted_Penalty>  (1) 
7.4502254237452924e-08

>  <r_epik_Ionization_Penalty>  (1) 
0.00022335133816854321

>  <r_epik_Ionization_Penalty_Charging>  (1) 
7.4502254237452924e-08

>  <r_epik_Ionization_Penalty_Neutral>  (1) 
0.00022327683591430577

>  <r_epik_State_Penalty>  (1) 
-0

>  <r_glide_ring_energy>  (1) 
0

>  <r_i_docking_score>  (1) 
-5.2543200010257642

>  <r_i_glide_ecoul>  (1) 
-1.0520520907694304

>  <r_i_glide_eff_state_penalty>  (1) 
-0

>  <r_i_glide_einternal>  (1) 
3.9072082476238945

>  <r_i_glide_emodel>  (1) 
-46.325089290944042

>  <r_i_glide_emodel_strain>  (1) 
3.4433473488980937

>  <r_i_glide_energy>  (1) 
-40.382193615419716

>  <r_i_glide_erotb>  (1) 
0.47630443723403276

>  <r_i_glide_esite>  (1) 
-0.053339701115588112

>  <r_i_glide_evdw>  (1) 
-39.330141524650287

>  <r_i_glide_gscore>  (1) 
-5.2543200010257642

>  <r_i_glide_gscore_strain>  (1) 
0

>  <r_i_glide_hbond>  (1) 
0

>  <r_i_glide_ligand_efficiency>  (1) 
-0.15453882355958129

>  <r_i_glide_ligand_efficiency_ln>  (1) 
-1.1608266669105713

>  <r_i_glide_ligand_efficiency_sa>  (1) 
-0.50064579655915842

>  <r_i_glide_lipo>  (1) 
-2.0016652731932245

>  <r_i_glide_metal>  (1) 
-0

>  <r_i_glide_rewards>  (1) 
-1.5513045741030549

>  <r_lp_Energy>  (1) 
50.225366999999999

>  <r_lp_tautomer_probability>  (1) 
1

>  <s_epik_Chemistry_Notes>  (1) 
This compound has an imine and may undergo hydrolysis. This compound contains an acetal/aminal-like group ( X-CH(R)-Y where X, Y are N, S, or O) that may be acid/base labile, releasing an aldehyde.

>  <s_epik_cmdline>  (1) 
J2VwaWtfcHl0aG9uJywgJy1waHQnLCAnMS4wJywgJy1waCcsICc3LjQnLCAnLXRuJywgJzgnLCAnLW1hJywgJzUwMCcsICctaW1hZScsICc8aW5maWxlLm1hZT4nLCAnLW9tYWUnLCAnPG91dGZpbGUubWFlPic=

>  <s_epik_input>  (1) 
W0NIM11jMVtjSF1jKFtjSF1bY0hdW2NIXTEpW0NASF0oW0NIM10pW0NIMl1OMltDQEBIXShPW0NIM10pW0NIMl1OKFtDSDJdW0NIXT1bQ0hdMilOKFtDQEBIXShDMz1PKVtDSDNdKVtDSDJdYyhjMzQpW2NIXWMoW05IXUMjTilbY0hdW2NIXTQ=

>  <s_glide_docking_method>  (1) 
confgen

>  <s_i_glide_gridfile>  (1) 
gpcr_drd2_6luq_protein_autoprepared_prepared

>  <s_lp_Force_Field>  (1) 
S-OPLS

>  <s_lp_Variant>  (1) 
DiffSBDD_51-2

>  <s_m_source_file>  (1) 
generated_generic_title2_ligand_DiffSBDD_2026-06-23_prepared.sdf

>  <GenAI_Model>  (1) 
DiffSBDD

>  <Protein>  (1) 
generic_title2

$$$$
DiffSBDD_44
     RDKit          3D

  0  0  0  0  0  0  0  0  0  0999 V3000
M  V30 BEGIN CTAB
M  V30 COUNTS 46 48 0 0 1
M  V30 BEGIN ATOM
M  V30 1 C 5.417293 4.544174 -12.046782 0 CFG=2
M  V30 2 C 8.934130 5.637230 -7.662127 0
M  V30 3 C 10.093058 7.198928 -5.985023 0
M  V30 4 C 6.039778 4.464334 -13.371836 0 CFG=1
M  V30 5 O 10.691477 6.790256 -8.818980 0
M  V30 6 C 11.894707 9.150401 -5.010903 0
M  V30 7 C 10.886038 6.941719 -4.844789 0
M  V30 8 C 7.777239 5.860570 -11.844969 0
M  V30 9 O 9.375424 8.788817 -7.671483 0
M  V30 10 O 7.650133 0.989534 -13.628602 0
M  V30 11 C 9.116586 6.162355 -6.416330 0
M  V30 12 C 10.196126 8.466624 -6.625930 0
M  V30 13 O 8.175409 3.619977 -14.040242 0
M  V30 14 C 6.598767 1.911436 -13.404688 0
M  V30 15 C 9.505328 5.199575 -10.131828 0
M  V30 16 N 5.375399 7.732573 -11.585024 0 CHG=1
M  V30 17 C 8.049086 5.045785 -10.584290 0
M  V30 18 O 4.696082 3.990229 -13.168175 0
M  V30 19 C 6.385962 5.656431 -12.453919 0 CFG=2
M  V30 20 C 7.043935 3.366372 -13.637322 0
M  V30 21 C 11.775413 7.912721 -4.360403 0
M  V30 22 C 9.775407 5.975761 -8.840105 0
M  V30 23 C 5.807810 7.011529 -12.800213 0
M  V30 24 C 11.111253 9.427051 -6.139512 0
M  V30 25 H 5.715534 3.813917 -11.297385 0
M  V30 26 H 8.155789 4.903953 -7.809606 0
M  V30 27 H 12.584090 9.892758 -4.637069 0
M  V30 28 H 10.799963 5.992534 -4.335129 0
M  V30 29 H 7.933520 6.909113 -11.587281 0
M  V30 30 H 8.529028 5.652735 -12.605654 0
M  V30 31 H 8.782203 8.090211 -7.916415 0
M  V30 32 H 7.310304 0.112033 -13.532695 0
M  V30 33 H 8.484427 5.789477 -5.630393 0
M  V30 34 H 5.775443 1.673138 -14.074990 0
M  V30 35 H 6.235491 1.795088 -12.384197 0
M  V30 36 H 10.105267 5.630236 -10.934378 0
M  V30 37 H 9.897313 4.197279 -9.965900 0
M  V30 38 H 5.088984 8.670573 -11.821213 0
M  V30 39 H 6.131070 7.776258 -10.892984 0
M  V30 40 H 7.332591 5.322610 -9.811800 0
M  V30 41 H 7.891568 3.990235 -10.793682 0
M  V30 42 H 12.374758 7.704497 -3.485369 0
M  V30 43 H 6.560133 7.590226 -13.335108 0
M  V30 44 H 4.975412 6.891179 -13.487175 0
M  V30 45 H 11.195939 10.386135 -6.620181 0
M  V30 46 H 4.598215 7.246431 -11.163203 0
M  V30 END ATOM
M  V30 BEGIN BOND
M  V30 1 1 4 1
M  V30 2 2 7 3
M  V30 3 2 11 2
M  V30 4 1 11 3
M  V30 5 1 12 3
M  V30 6 1 12 9
M  V30 7 1 14 10
M  V30 8 1 17 8
M  V30 9 1 17 15
M  V30 10 1 18 1
M  V30 11 1 18 4
M  V30 12 1 19 1
M  V30 13 1 19 4
M  V30 14 1 19 8 CFG=1
M  V30 15 1 4 20 CFG=1
M  V30 16 2 20 13
M  V30 17 1 20 14
M  V30 18 2 21 6
M  V30 19 1 21 7
M  V30 20 1 22 2
M  V30 21 2 22 5
M  V30 22 1 22 15
M  V30 23 1 23 16
M  V30 24 1 23 19
M  V30 25 1 24 6
M  V30 26 2 24 12
M  V30 27 1 1 25 CFG=1
M  V30 28 1 26 2
M  V30 29 1 27 6
M  V30 30 1 28 7
M  V30 31 1 29 8
M  V30 32 1 30 8
M  V30 33 1 31 9
M  V30 34 1 32 10
M  V30 35 1 33 11
M  V30 36 1 34 14
M  V30 37 1 35 14
M  V30 38 1 36 15
M  V30 39 1 37 15
M  V30 40 1 38 16
M  V30 41 1 39 16
M  V30 42 1 40 17
M  V30 43 1 41 17
M  V30 44 1 42 21
M  V30 45 1 43 23
M  V30 46 1 44 23
M  V30 47 1 45 24
M  V30 48 1 46 16
M  V30 END BOND
M  V30 END CTAB
M  END
>  <i_epik_Tot_Q>  (1) 
1

>  <i_epik_Tot_abs_Q>  (1) 
1

>  <i_i_glide_confnum>  (1) 
656

>  <i_i_glide_lignum>  (1) 
72

>  <i_i_glide_posenum>  (1) 
216

>  <i_i_glide_rotatable_bonds>  (1) 
11

>  <i_lp_mmshare_version>  (1) 
72125

>  <i_m_source_file_index>  (1) 
45

>  <i_f3d_flags>  (1) 
0

>  <num_sample>  (1) 
100

>  <b_lp_Chiralities_Consistent>  (1) 
1

>  <r_epik_Charging_Adjusted_Penalty>  (1) 
0.0039975134785533318

>  <r_epik_Ionization_Penalty>  (1) 
0.0083805373542956835

>  <r_epik_Ionization_Penalty_Charging>  (1) 
0.0039975134785533318

>  <r_epik_Ionization_Penalty_Neutral>  (1) 
0.0043830238757423508

>  <r_epik_State_Penalty>  (1) 
-0

>  <r_glide_ring_energy>  (1) 
0

>  <r_i_docking_score>  (1) 
-5.2511924658622569

>  <r_i_glide_ecoul>  (1) 
-8.7903033464412577

>  <r_i_glide_eff_state_penalty>  (1) 
-0

>  <r_i_glide_einternal>  (1) 
9.289258692009394

>  <r_i_glide_emodel>  (1) 
-47.134187026909672

>  <r_i_glide_emodel_strain>  (1) 
1.7245079775361773

>  <r_i_glide_energy>  (1) 
-35.351709928914566

>  <r_i_glide_erotb>  (1) 
1.3638172886518747

>  <r_i_glide_esite>  (1) 
-0.13665342137710076

>  <r_i_glide_evdw>  (1) 
-26.561406582473307

>  <r_i_glide_gscore>  (1) 
-5.2511924658622569

>  <r_i_glide_gscore_strain>  (1) 
0

>  <r_i_glide_hbond>  (1) 
-0.22565598966571365

>  <r_i_glide_ligand_efficiency>  (1) 
-0.21879968607759404

>  <r_i_glide_ligand_efficiency_ln>  (1) 
-1.2568513186018337

>  <r_i_glide_ligand_efficiency_sa>  (1) 
-0.63112750645761173

>  <r_i_glide_lipo>  (1) 
-1.8573519366756874

>  <r_i_glide_metal>  (1) 
-0

>  <r_i_glide_rewards>  (1) 
-1.7487325757057759

>  <r_lp_Energy>  (1) 
27.234783

>  <r_lp_tautomer_probability>  (1) 
1

>  <s_epik_cmdline>  (1) 
J2VwaWtfcHl0aG9uJywgJy1waHQnLCAnMS4wJywgJy1waCcsICc3LjQnLCAnLXRuJywgJzgnLCAnLW1hJywgJzUwMCcsICctaW1hZScsICc8aW5maWxlLm1hZT4nLCAnLW9tYWUnLCAnPG91dGZpbGUubWFlPic=

>  <s_epik_input>  (1) 
W09IXVtDSDJdQyg9TylbQ0BdMTJbQ0BIXShPMSlbQ0BAXTIoW0NIMl1bTkgyXSlbQ0gyXVtDSDJdW0NIMl1DKD1PKS9bQ0hdPVtDSF1cYzNbY0hdW2NIXVtjSF1bY0hdYzNbT0hd

>  <s_glide_docking_method>  (1) 
confgen

>  <s_i_glide_gridfile>  (1) 
gpcr_drd2_6luq_protein_autoprepared_prepared

>  <s_lp_Force_Field>  (1) 
S-OPLS

>  <s_lp_Variant>  (1) 
DiffSBDD_44-2

>  <s_m_source_file>  (1) 
generated_generic_title2_ligand_DiffSBDD_2026-06-23_prepared.sdf

>  <GenAI_Model>  (1) 
DiffSBDD

>  <Protein>  (1) 
generic_title2

$$$$
DiffSBDD_9
     RDKit          3D

  0  0  0  0  0  0  0  0  0  0999 V3000
M  V30 BEGIN CTAB
M  V30 COUNTS 66 71 0 0 1
M  V30 BEGIN ATOM
M  V30 1 C 7.240847 1.709303 -19.125416 0
M  V30 2 O 5.734943 -1.436915 -17.947495 0
M  V30 3 C 7.385184 2.411933 -17.914623 0
M  V30 4 C 11.375367 8.099737 -6.430620 0 CFG=2
M  V30 5 C 11.775382 8.695885 -3.946091 0
M  V30 6 C 7.234518 5.241610 -11.912601 0
M  V30 7 C 8.175344 1.854104 -14.630868 0 CFG=2
M  V30 8 C 7.543175 0.994841 -13.570879 0
M  V30 9 C 11.834590 6.411265 -3.083451 0
M  V30 10 O 8.477579 5.590071 -9.251567 0
M  V30 11 C 6.686370 0.416672 -19.130907 0
M  V30 12 C 11.353397 6.987501 -7.486743 0
M  V30 13 C 6.687000 4.842699 -13.311168 0
M  V30 14 O 6.396523 5.990214 -11.184993 0
M  V30 15 C 11.175109 7.695323 -4.951137 0 CFG=2
M  V30 16 N 11.718101 6.390234 -4.551154 0 CHG=1
M  V30 17 N 8.035263 4.072459 -13.563641 0 CHG=1
M  V30 18 C 9.231330 5.041361 -10.313107 0
M  V30 19 C 12.168073 7.862051 -2.717040 0
M  V30 20 C 8.890938 4.118292 -12.603585 0
M  V30 21 C 6.414193 0.521076 -16.701738 0
M  V30 22 C 7.017551 -0.283990 -14.251542 0
M  V30 23 O 9.400766 5.763414 -8.080601 0
M  V30 24 C 8.430580 4.823632 -11.584459 0
M  V30 25 C 9.240207 8.113924 -7.338033 0
M  V30 26 C 5.948970 -0.119746 -15.371231 0
M  V30 27 C 8.243883 3.355306 -14.832698 0 CFG=2
M  V30 28 C 7.120237 2.555449 -15.417852 0 CFG=1
M  V30 29 C 9.985442 7.057321 -8.147180 0 CFG=1
M  V30 30 C 6.974540 1.826367 -16.699012 0
M  V30 31 O 10.274520 8.918128 -6.784048 0
M  V30 32 C 6.272749 -0.181327 -17.925978 0
M  V30 33 H 7.556742 2.163531 -20.053287 0
M  V30 34 H 5.563231 -1.799873 -17.092132 0
M  V30 35 H 7.811590 3.404453 -17.917731 0
M  V30 36 H 12.285322 8.689334 -6.543878 0
M  V30 37 H 12.670582 9.171553 -4.349130 0
M  V30 38 H 11.076189 9.497838 -3.702474 0
M  V30 39 H 8.933130 1.311469 -15.196228 0
M  V30 40 H 6.739769 1.523236 -13.055921 0
M  V30 41 H 8.293689 0.744455 -12.820286 0
M  V30 42 H 12.575444 5.698901 -2.721209 0
M  V30 43 H 10.871827 6.128474 -2.655475 0
M  V30 44 H 6.577371 -0.118537 -20.063163 0
M  V30 45 H 11.568059 5.998337 -7.084715 0
M  V30 46 H 12.117064 7.191697 -8.237242 0
M  V30 47 H 5.847138 4.149156 -13.284324 0
M  V30 48 H 6.586432 5.663502 -14.022435 0
M  V30 49 H 10.111194 7.584048 -4.785052 0
M  V30 50 H 11.124193 5.629019 -4.856697 0
M  V30 51 H 9.669079 4.096393 -9.985983 0
M  V30 52 H 10.052514 5.710439 -10.564799 0
M  V30 53 H 13.234479 7.974621 -2.515919 0
M  V30 54 H 11.631699 8.177711 -1.820848 0
M  V30 55 H 9.852284 3.621066 -12.676575 0
M  V30 56 H 6.592080 -0.919940 -13.475188 0
M  V30 57 H 7.876482 -0.809770 -14.663342 0
M  V30 58 H 8.575423 8.723799 -7.947621 0
M  V30 59 H 8.648355 7.656583 -6.544330 0
M  V30 60 H 5.110922 0.458853 -14.985444 0
M  V30 61 H 5.527406 -1.106667 -15.550852 0
M  V30 62 H 8.975345 3.841886 -15.474833 0
M  V30 63 H 6.175420 2.692706 -14.936952 0
M  V30 64 H 10.101758 7.409200 -9.172094 0
M  V30 65 H 12.638995 6.282989 -4.950163 0
M  V30 66 H 6.849123 6.314110 -10.408641 0
M  V30 END ATOM
M  V30 BEGIN BOND
M  V30 1 1 3 1
M  V30 2 1 8 7
M  V30 3 2 11 1
M  V30 4 1 12 4
M  V30 5 1 13 6
M  V30 6 1 14 6
M  V30 7 1 15 4
M  V30 8 1 15 5
M  V30 9 1 16 9
M  V30 10 1 16 15
M  V30 11 1 17 13
M  V30 12 1 18 10
M  V30 13 1 19 5
M  V30 14 1 19 9
M  V30 15 2 20 17
M  V30 16 1 22 8
M  V30 17 1 23 10
M  V30 18 2 24 6
M  V30 19 1 24 18
M  V30 20 1 24 20
M  V30 21 1 26 21
M  V30 22 1 26 22
M  V30 23 1 27 7
M  V30 24 1 27 17
M  V30 25 1 28 7
M  V30 26 1 28 27
M  V30 27 1 29 12
M  V30 28 1 29 23
M  V30 29 1 29 25
M  V30 30 2 30 3
M  V30 31 1 30 21
M  V30 32 1 30 28
M  V30 33 1 31 4
M  V30 34 1 31 25
M  V30 35 1 32 2
M  V30 36 1 32 11
M  V30 37 2 32 21
M  V30 38 1 33 1
M  V30 39 1 34 2
M  V30 40 1 35 3
M  V30 41 1 4 36 CFG=1
M  V30 42 1 37 5
M  V30 43 1 38 5
M  V30 44 1 7 39 CFG=3
M  V30 45 1 40 8
M  V30 46 1 41 8
M  V30 47 1 42 9
M  V30 48 1 43 9
M  V30 49 1 44 11
M  V30 50 1 45 12
M  V30 51 1 46 12
M  V30 52 1 47 13
M  V30 53 1 48 13
M  V30 54 1 15 49 CFG=1
M  V30 55 1 50 16
M  V30 56 1 51 18
M  V30 57 1 52 18
M  V30 58 1 53 19
M  V30 59 1 54 19
M  V30 60 1 55 20
M  V30 61 1 56 22
M  V30 62 1 57 22
M  V30 63 1 58 25
M  V30 64 1 59 25
M  V30 65 1 60 26
M  V30 66 1 61 26
M  V30 67 1 27 62 CFG=3
M  V30 68 1 28 63 CFG=1
M  V30 69 1 29 64 CFG=3
M  V30 70 1 65 16
M  V30 71 1 66 14
M  V30 END BOND
M  V30 END CTAB
M  END
>  <i_epik_Tot_Q>  (1) 
2

>  <i_epik_Tot_abs_Q>  (1) 
2

>  <i_i_glide_confnum>  (1) 
416

>  <i_i_glide_lignum>  (1) 
17

>  <i_i_glide_posenum>  (1) 
320

>  <i_i_glide_rotatable_bonds>  (1) 
8

>  <i_lp_mmshare_version>  (1) 
72125

>  <i_m_source_file_index>  (1) 
10

>  <i_f3d_flags>  (1) 
0

>  <num_sample>  (1) 
100

>  <b_lp_Chiralities_Consistent>  (1) 
1

>  <r_epik_Charging_Adjusted_Penalty>  (1) 
1.3157260146662635

>  <r_epik_Ionization_Penalty>  (1) 
1.3160658386974122

>  <r_epik_Ionization_Penalty_Charging>  (1) 
0.0006406180093694357

>  <r_epik_Ionization_Penalty_Neutral>  (1) 
1.3154252206880428

>  <r_epik_State_Penalty>  (1) 
1.3150853966568941

>  <r_glide_ring_energy>  (1) 
1.1085812153389478

>  <r_i_docking_score>  (1) 
-5.2499572534659595

>  <r_i_glide_ecoul>  (1) 
-6.763879009967714

>  <r_i_glide_eff_state_penalty>  (1) 
1.3150853966568941

>  <r_i_glide_einternal>  (1) 
7.9411352590449038

>  <r_i_glide_emodel>  (1) 
-51.388361870712501

>  <r_i_glide_emodel_strain>  (1) 
1.5379370615629284

>  <r_i_glide_energy>  (1) 
-42.532184446560997

>  <r_i_glide_erotb>  (1) 
0.61220542290859559

>  <r_i_glide_esite>  (1) 
-0.14596788781912706

>  <r_i_glide_evdw>  (1) 
-35.76830543659328

>  <r_i_glide_gscore>  (1) 
-6.5650426501228534

>  <r_i_glide_gscore_strain>  (1) 
0

>  <r_i_glide_hbond>  (1) 
-0.1196445851823688

>  <r_i_glide_ligand_efficiency>  (1) 
-0.16406116417081124

>  <r_i_glide_ligand_efficiency_ln>  (1) 
-1.1756085374808163

>  <r_i_glide_ligand_efficiency_sa>  (1) 
-0.52086172918374651

>  <r_i_glide_lipo>  (1) 
-2.7646760277966047

>  <r_i_glide_metal>  (1) 
-0

>  <r_i_glide_rewards>  (1) 
-1.3439624489085282

>  <r_lp_Energy>  (1) 
41.799700000000001

>  <r_lp_tautomer_probability>  (1) 
0.99929914238884965

>  <s_epik_Chemistry_Notes>  (1) 
This compound has an imine and may undergo hydrolysis.

>  <s_epik_cmdline>  (1) 
J2VwaWtfcHl0aG9uJywgJy1waHQnLCAnMS4wJywgJy1waCcsICc3LjQnLCAnLXRuJywgJzgnLCAnLW1hJywgJzUwMCcsICctaW1hZScsICc8aW5maWxlLm1hZT4nLCAnLW9tYWUnLCAnPG91dGZpbGUubWFlPic=

>  <s_epik_input>  (1) 
W2NIXTFbY0hdW2NIXWMoW09IXSljKFtDSDJdW0NIMl1bQ0gyXTIpYzFbQ0BASF0oW0NASF0yMylbQ0hdM24oW2NIXWM0W09IXSlbY0hdYzRbQ0gyXU9PW0NAQEhdKFtDSDJdTzUpW0NIMl1bQ0BASF01W0NAQEhdNltDSDJdW0NIMl1bQ0gyXVtOSF02

>  <s_glide_docking_method>  (1) 
confgen

>  <s_i_glide_gridfile>  (1) 
gpcr_drd2_6luq_protein_autoprepared_prepared

>  <s_lp_Force_Field>  (1) 
S-OPLS

>  <s_lp_Variant>  (1) 
DiffSBDD_9-2

>  <s_m_source_file>  (1) 
generated_generic_title2_ligand_DiffSBDD_2026-06-23_prepared.sdf

>  <GenAI_Model>  (1) 
DiffSBDD

>  <Protein>  (1) 
generic_title2

$$$$
DiffSBDD_4
     RDKit          3D

  0  0  0  0  0  0  0  0  0  0999 V3000
M  V30 BEGIN CTAB
M  V30 COUNTS 76 80 0 0 1
M  V30 BEGIN ATOM
M  V30 1 C 7.862784 5.253203 -14.302483 0 CFG=1
M  V30 2 C 6.882687 5.430797 -17.116472 0 CFG=2
M  V30 3 C 6.749487 7.189608 -19.639813 0
M  V30 4 O 5.881103 5.451172 -23.212473 0
M  V30 5 C 6.006824 7.571203 -22.046249 0 CFG=1
M  V30 6 O 7.165647 6.169553 -11.584745 0
M  V30 7 C 8.555155 4.501595 -15.462931 0 CFG=2
M  V30 8 C 11.153821 7.440088 -8.591048 0 CFG=2
M  V30 9 C 6.462926 5.670954 -19.697757 0 CFG=2
M  V30 10 C 8.872165 5.562486 -13.204645 0 CFG=2
M  V30 11 C 4.625630 9.474347 -21.529607 0
M  V30 12 O 9.783818 7.665951 -8.732469 0
M  V30 13 C 5.215800 3.794716 -21.035388 0
M  V30 14 C 6.413239 8.167322 -23.412646 0
M  V30 15 C 12.258230 8.437972 -8.327709 0
M  V30 16 C 5.792566 6.050931 -22.139444 0
M  V30 17 O 11.986584 7.590500 -10.743505 0
M  V30 18 C 7.084805 6.486325 -14.802189 0
M  V30 19 C 8.787082 8.530502 -11.268578 0
M  V30 20 C 10.910677 7.117351 -11.580844 0
M  V30 21 O 9.334616 6.625862 -9.732315 0
M  V30 22 C 3.456916 10.058708 -21.236231 0
M  V30 23 C 11.591665 8.406769 -9.668606 0 CFG=1
M  V30 24 C 7.106726 7.807908 -20.995470 0
M  V30 25 C 8.972044 4.631834 -12.005689 0
M  V30 26 C 5.448736 5.315998 -20.828489 0 CFG=2
M  V30 27 O 9.673662 5.190171 -15.990694 0
M  V30 28 C 6.479425 2.945153 -21.253113 0
M  V30 29 C 5.954979 5.161674 -18.326756 0
M  V30 30 C 9.412187 7.124796 -11.073280 0 CFG=1
M  V30 31 C 7.589482 4.163797 -16.606026 0
M  V30 32 C 8.560931 6.075698 -11.817391 0 CFG=2
M  V30 33 O 4.762953 8.111413 -21.578864 0
M  V30 34 C 6.141221 6.135850 -15.962869 0
M  V30 35 H 7.120371 4.577727 -13.875199 0
M  V30 36 H 7.687256 6.091641 -17.416258 0
M  V30 37 H 5.896807 7.716244 -19.208067 0
M  V30 38 H 7.602309 7.378136 -18.996786 0
M  V30 39 H 7.038165 6.630114 -10.750638 0
M  V30 40 H 8.954667 3.589416 -15.054722 0
M  V30 41 H 11.400767 6.388509 -8.658073 0
M  V30 42 H 7.411534 5.179773 -19.916948 0
M  V30 43 H 9.813384 5.918914 -13.603626 0
M  V30 44 H 5.540872 10.002832 -21.747320 0
M  V30 45 H 4.645980 3.389964 -20.199491 0
M  V30 46 H 4.575099 3.651721 -21.904030 0
M  V30 47 H 7.201327 7.585513 -23.893447 0
M  V30 48 H 5.548111 8.189383 -24.070921 0
M  V30 49 H 6.792466 9.185428 -23.328231 0
M  V30 50 H 12.023432 9.259292 -7.655802 0
M  V30 51 H 13.276155 8.059655 -8.261544 0
M  V30 52 H 6.501260 6.920519 -13.989779 0
M  V30 53 H 7.770124 7.260791 -15.120680 0
M  V30 54 H 9.160094 9.000879 -12.178493 0
M  V30 55 H 7.707099 8.530739 -11.380243 0
M  V30 56 H 8.973642 9.188067 -10.427811 0
M  V30 57 H 11.211078 6.131275 -11.899914 0
M  V30 58 H 10.969565 7.590272 -12.552448 0
M  V30 59 H 3.363514 11.132249 -21.204097 0
M  V30 60 H 2.579776 9.467862 -21.025958 0
M  V30 61 H 11.043993 9.297726 -9.937965 0
M  V30 62 H 7.296499 8.872516 -20.864237 0
M  V30 63 H 8.050199 7.384179 -21.344823 0
M  V30 64 H 9.964623 4.323859 -11.688772 0
M  V30 65 H 8.201809 3.874940 -11.871449 0
M  V30 66 H 4.484922 5.735411 -20.535244 0
M  V30 67 H 10.366450 5.177655 -15.345148 0
M  V30 68 H 6.210354 1.914476 -21.485362 0
M  V30 69 H 7.079221 3.320887 -22.081879 0
M  V30 70 H 7.109878 2.920766 -20.364865 0
M  V30 71 H 5.777126 4.089674 -18.386204 0
M  V30 72 H 4.975369 5.601572 -18.143323 0
M  V30 73 H 6.864238 3.434964 -16.248187 0
M  V30 74 H 8.132278 3.677377 -17.418190 0
M  V30 75 H 5.346110 5.496178 -15.587054 0
M  V30 76 H 5.662533 7.045741 -16.327875 0
M  V30 END ATOM
M  V30 BEGIN BOND
M  V30 1 1 7 1
M  V30 2 1 9 3
M  V30 3 1 10 1
M  V30 4 1 12 8
M  V30 5 1 14 5
M  V30 6 1 15 8
M  V30 7 2 16 4
M  V30 8 1 16 5
M  V30 9 1 18 1
M  V30 10 1 20 17
M  V30 11 1 21 12
M  V30 12 2 22 11
M  V30 13 1 23 8
M  V30 14 1 23 15
M  V30 15 1 23 17
M  V30 16 1 24 3
M  V30 17 1 24 5
M  V30 18 1 25 10
M  V30 19 1 26 9
M  V30 20 1 26 13
M  V30 21 1 26 16
M  V30 22 1 27 7
M  V30 23 1 28 13
M  V30 24 1 29 2
M  V30 25 1 29 9
M  V30 26 1 30 19 CFG=1
M  V30 27 1 30 20
M  V30 28 1 30 21
M  V30 29 1 31 2
M  V30 30 1 31 7
M  V30 31 1 32 6 CFG=3
M  V30 32 1 32 10
M  V30 33 1 32 25
M  V30 34 1 32 30
M  V30 35 1 5 33 CFG=1
M  V30 36 1 33 11
M  V30 37 1 34 2
M  V30 38 1 34 18
M  V30 39 1 1 35 CFG=1
M  V30 40 1 2 36 CFG=3
M  V30 41 1 37 3
M  V30 42 1 38 3
M  V30 43 1 39 6
M  V30 44 1 7 40 CFG=1
M  V30 45 1 8 41 CFG=3
M  V30 46 1 9 42 CFG=3
M  V30 47 1 10 43 CFG=3
M  V30 48 1 44 11
M  V30 49 1 45 13
M  V30 50 1 46 13
M  V30 51 1 47 14
M  V30 52 1 48 14
M  V30 53 1 49 14
M  V30 54 1 50 15
M  V30 55 1 51 15
M  V30 56 1 52 18
M  V30 57 1 53 18
M  V30 58 1 54 19
M  V30 59 1 55 19
M  V30 60 1 56 19
M  V30 61 1 57 20
M  V30 62 1 58 20
M  V30 63 1 59 22
M  V30 64 1 60 22
M  V30 65 1 23 61 CFG=3
M  V30 66 1 62 24
M  V30 67 1 63 24
M  V30 68 1 64 25
M  V30 69 1 65 25
M  V30 70 1 26 66 CFG=1
M  V30 71 1 67 27
M  V30 72 1 68 28
M  V30 73 1 69 28
M  V30 74 1 70 28
M  V30 75 1 71 29
M  V30 76 1 72 29
M  V30 77 1 73 31
M  V30 78 1 74 31
M  V30 79 1 75 34
M  V30 80 1 76 34
M  V30 END BOND
M  V30 END CTAB
M  END
>  <i_epik_Tot_Q>  (1) 
0

>  <i_epik_Tot_abs_Q>  (1) 
0

>  <i_i_glide_confnum>  (1) 
77

>  <i_i_glide_lignum>  (1) 
8

>  <i_i_glide_posenum>  (1) 
267

>  <i_i_glide_rotatable_bonds>  (1) 
9

>  <i_lp_mmshare_version>  (1) 
72125

>  <i_m_source_file_index>  (1) 
5

>  <i_f3d_flags>  (1) 
0

>  <num_sample>  (1) 
100

>  <b_lp_Chiralities_Consistent>  (1) 
1

>  <r_epik_Charging_Adjusted_Penalty>  (1) 
0

>  <r_epik_Ionization_Penalty>  (1) 
6.2478277439111229e-07

>  <r_epik_Ionization_Penalty_Charging>  (1) 
0

>  <r_epik_Ionization_Penalty_Neutral>  (1) 
6.2478277439111229e-07

>  <r_epik_State_Penalty>  (1) 
-0

>  <r_glide_ring_energy>  (1) 
0

>  <r_i_docking_score>  (1) 
-5.2434290260782248

>  <r_i_glide_ecoul>  (1) 
-3.4746456033462421

>  <r_i_glide_eff_state_penalty>  (1) 
-0

>  <r_i_glide_einternal>  (1) 
12.926515947525836

>  <r_i_glide_emodel>  (1) 
-30.03793180271937

>  <r_i_glide_emodel_strain>  (1) 
2.6815219017960601

>  <r_i_glide_energy>  (1) 
-30.996517337583473

>  <r_i_glide_erotb>  (1) 
0.53077912702887098

>  <r_i_glide_esite>  (1) 
-0.20000000000000001

>  <r_i_glide_evdw>  (1) 
-27.52187173423723

>  <r_i_glide_gscore>  (1) 
-5.2434290260782248

>  <r_i_glide_gscore_strain>  (1) 
0

>  <r_i_glide_hbond>  (1) 
-0.16

>  <r_i_glide_ligand_efficiency>  (1) 
-0.15421850076700661

>  <r_i_glide_ligand_efficiency_ln>  (1) 
-1.1584205450631599

>  <r_i_glide_ligand_efficiency_sa>  (1) 
-0.49960807506011529

>  <r_i_glide_lipo>  (1) 
-2.8655745630765557

>  <r_i_glide_metal>  (1) 
-0

>  <r_i_glide_rewards>  (1) 
-0.65134316281674209

>  <r_lp_Energy>  (1) 
51.660091999999999

>  <r_lp_tautomer_probability>  (1) 
1

>  <s_epik_cmdline>  (1) 
J2VwaWtfcHl0aG9uJywgJy1waHQnLCAnMS4wJywgJy1waCcsICc3LjQnLCAnLXRuJywgJzgnLCAnLW1hJywgJzUwMCcsICctaW1hZScsICc8aW5maWxlLm1hZT4nLCAnLW9tYWUnLCAnPG91dGZpbGUubWFlPic=

>  <s_epik_input>  (1) 
W0NAQEhdMTJbQ0BASF0oW0NIMl0yKU9bQ0gyXVtDQF0oW0NIM10pKE9PMSlbQ0BAXTMoW09IXSlbQ0BASF0oW0NIMl0zKVtDQEBIXTRbQ0BIXShbT0hdKVtDSDJdW0NASF0oW0NIMl1bQ0gyXTQpW0NIMl1bQ0BIXShbQ0gyXVtDSDJdNSlbQ0BIXShbQ0gyXVtDSDNdKUMoPU8pW0NAQF01KFtDSDNdKU9bQ0hdPVtDSDJd

>  <s_glide_docking_method>  (1) 
confgen

>  <s_i_glide_gridfile>  (1) 
gpcr_drd2_6luq_protein_autoprepared_prepared

>  <s_lp_Force_Field>  (1) 
S-OPLS

>  <s_lp_Variant>  (1) 
DiffSBDD_4-1

>  <s_m_source_file>  (1) 
generated_generic_title2_ligand_DiffSBDD_2026-06-23_prepared.sdf

>  <GenAI_Model>  (1) 
DiffSBDD

>  <Protein>  (1) 
generic_title2

$$$$
DiffSBDD_90
     RDKit          3D

  0  0  0  0  0  0  0  0  0  0999 V3000
M  V30 BEGIN CTAB
M  V30 COUNTS 80 84 0 0 1
M  V30 BEGIN ATOM
M  V30 1 C 7.610661 7.044553 -13.278245 0
M  V30 2 C 8.800696 6.100604 -13.033406 0 CFG=1
M  V30 3 C 10.217270 7.720984 -10.079352 0
M  V30 4 C 8.056484 4.305995 -18.175623 0 CFG=2
M  V30 5 C 11.045330 6.966506 -11.960077 0
M  V30 6 C 10.243147 8.350917 -8.774085 0 CFG=2
M  V30 7 C 6.559509 3.672054 -14.594770 0 CFG=2
M  V30 8 O 6.975090 6.385325 -15.331028 0 CHG=-1
M  V30 9 C 6.618769 6.224441 -14.088098 0 CFG=1
M  V30 10 C 7.694543 6.747993 -19.039387 0
M  V30 11 O 11.108947 5.506421 -21.409872 0
M  V30 12 C 9.687987 6.715273 -11.987915 0
M  V30 13 C 7.849345 4.129872 -11.488869 0 CFG=2
M  V30 14 O 8.881935 5.768664 -21.340345 0 CHG=-1
M  V30 15 O 7.176190 3.951657 -19.075456 0 CHG=-1
M  V30 16 C 7.381357 3.375239 -15.933551 0 CFG=2
M  V30 17 N 7.196525 4.404236 -16.986286 0 CHG=1
M  V30 18 N 6.909459 4.816217 -13.697943 0 CFG=2 CHG=1
M  V30 19 C 11.405434 5.103027 -17.315723 0
M  V30 20 C 7.049227 1.974663 -16.569858 0
M  V30 21 O 8.759695 4.396032 -10.445826 0
M  V30 22 O 7.905720 0.943184 -16.130892 0
M  V30 23 O 7.775387 0.907529 -12.488357 0
M  V30 24 C 8.579964 3.302736 -12.518018 0 CFG=1
M  V30 25 C 10.006943 5.610344 -20.821475 0
M  V30 26 C 6.500294 2.433352 -13.699201 0
M  V30 27 N 11.284562 7.590162 -10.759791 0
M  V30 28 O 10.557071 4.984547 -16.430337 0
M  V30 29 C 11.771953 8.826265 -8.939807 0
M  V30 30 N 9.213321 7.208892 -10.781599 0 CHG=1
M  V30 31 C 8.694434 5.680975 -18.521234 0 CFG=2
M  V30 32 O 10.175194 9.091754 -6.169328 0
M  V30 33 O 10.023641 7.398451 -7.735278 0
M  V30 34 C 10.459361 7.763073 -6.462851 0
M  V30 35 C 12.886983 4.979414 -16.971163 0
M  V30 36 C 10.059066 5.527987 -19.288017 0
M  V30 37 C 7.909902 2.104872 -13.212465 0 CFG=2
M  V30 38 C 11.019038 9.663418 -5.183398 0
M  V30 39 N 11.181804 5.334908 -18.671035 0
M  V30 40 C 12.477994 8.097197 -10.173759 0
M  V30 41 C 8.125827 4.740093 -12.853794 0 CFG=1
M  V30 42 H 7.129043 7.300093 -12.331759 0
M  V30 43 H 7.884738 7.987600 -13.746879 0
M  V30 44 H 9.384033 5.989974 -13.949382 0
M  V30 45 H 8.882104 3.641186 -17.919984 0
M  V30 46 H 11.823796 6.767763 -12.683388 0
M  V30 47 H 9.522258 9.169998 -8.759703 0
M  V30 48 H 5.548064 3.990225 -14.785078 0
M  V30 49 H 5.609161 6.454125 -13.738628 0
M  V30 50 H 8.232462 7.590207 -19.460104 0
M  V30 51 H 7.030658 6.375387 -19.818026 0
M  V30 52 H 7.055978 7.115494 -18.235882 0
M  V30 53 H 6.836564 3.889995 -11.170749 0
M  V30 54 H 8.442519 3.404664 -15.684293 0
M  V30 55 H 6.272214 4.344241 -17.383387 0
M  V30 56 H 7.170496 1.948416 -17.649323 0
M  V30 57 H 6.014238 1.679357 -16.413448 0
M  V30 58 H 8.940425 3.590163 -9.984014 0
M  V30 59 H 7.682041 0.146687 -16.592632 0
M  V30 60 H 8.574252 0.792658 -11.978946 0
M  V30 61 H 9.651073 3.166286 -12.371799 0
M  V30 62 H 5.837093 2.608067 -12.851027 0
M  V30 63 H 6.062297 1.573396 -14.204736 0
M  V30 64 H 11.751672 9.890303 -9.180221 0
M  V30 65 H 12.371504 8.756372 -8.033807 0
M  V30 66 H 8.950038 6.154312 -17.584837 0
M  V30 67 H 9.963569 7.123501 -5.731710 0
M  V30 68 H 11.530000 7.561001 -6.398527 0
M  V30 69 H 13.450835 5.814474 -17.388469 0
M  V30 70 H 13.037453 4.968661 -15.893527 0
M  V30 71 H 13.287687 4.053040 -17.381859 0
M  V30 72 H 8.574369 1.848746 -14.027314 0
M  V30 73 H 10.667100 10.666544 -4.935527 0
M  V30 74 H 11.024270 9.071887 -4.268434 0
M  V30 75 H 12.043431 9.748045 -5.544407 0
M  V30 76 H 13.070577 7.263747 -9.813435 0
M  V30 77 H 13.020211 8.755755 -10.851275 0
M  V30 78 H 8.240230 7.191107 -10.469441 0
M  V30 79 H 7.266600 5.324588 -16.515838 0
M  V30 80 H 6.202305 4.700954 -12.988390 0
M  V30 END ATOM
M  V30 BEGIN BOND
M  V30 1 1 2 1
M  V30 2 1 6 3
M  V30 3 1 9 1
M  V30 4 1 9 8
M  V30 5 1 12 2
M  V30 6 2 12 5
M  V30 7 1 15 4
M  V30 8 1 16 7
M  V30 9 1 17 4
M  V30 10 1 17 16
M  V30 11 1 18 7
M  V30 12 1 18 9
M  V30 13 1 20 16
M  V30 14 1 21 13
M  V30 15 1 22 20
M  V30 16 1 24 13
M  V30 17 2 25 11
M  V30 18 1 25 14
M  V30 19 1 26 7
M  V30 20 1 27 3
M  V30 21 1 27 5
M  V30 22 2 28 19
M  V30 23 1 29 6
M  V30 24 2 30 3
M  V30 25 1 30 12
M  V30 26 1 31 4
M  V30 27 1 31 10
M  V30 28 1 33 6
M  V30 29 1 34 32
M  V30 30 1 34 33
M  V30 31 1 35 19
M  V30 32 1 36 25
M  V30 33 1 36 31
M  V30 34 1 37 23
M  V30 35 1 37 24
M  V30 36 1 37 26
M  V30 37 1 38 32
M  V30 38 1 39 19
M  V30 39 2 39 36
M  V30 40 1 40 27
M  V30 41 1 40 29
M  V30 42 1 41 2 CFG=1
M  V30 43 1 41 13
M  V30 44 1 41 18
M  V30 45 1 41 24
M  V30 46 1 42 1
M  V30 47 1 43 1
M  V30 48 1 2 44 CFG=3
M  V30 49 1 4 45 CFG=1
M  V30 50 1 46 5
M  V30 51 1 6 47 CFG=3
M  V30 52 1 7 48 CFG=3
M  V30 53 1 9 49 CFG=3
M  V30 54 1 50 10
M  V30 55 1 51 10
M  V30 56 1 52 10
M  V30 57 1 13 53 CFG=1
M  V30 58 1 16 54 CFG=1
M  V30 59 1 55 17
M  V30 60 1 56 20
M  V30 61 1 57 20
M  V30 62 1 58 21
M  V30 63 1 59 22
M  V30 64 1 60 23
M  V30 65 1 24 61 CFG=1
M  V30 66 1 62 26
M  V30 67 1 63 26
M  V30 68 1 64 29
M  V30 69 1 65 29
M  V30 70 1 31 66 CFG=1
M  V30 71 1 67 34
M  V30 72 1 68 34
M  V30 73 1 69 35
M  V30 74 1 70 35
M  V30 75 1 71 35
M  V30 76 1 37 72 CFG=3
M  V30 77 1 73 38
M  V30 78 1 74 38
M  V30 79 1 75 38
M  V30 80 1 76 40
M  V30 81 1 77 40
M  V30 82 1 78 30
M  V30 83 1 79 17
M  V30 84 1 18 80 CFG=1
M  V30 END BOND
M  V30 END CTAB
M  END
>  <i_epik_Tot_Q>  (1) 
0

>  <i_epik_Tot_abs_Q>  (1) 
6

>  <i_i_glide_confnum>  (1) 
840

>  <i_i_glide_lignum>  (1) 
167

>  <i_i_glide_posenum>  (1) 
371

>  <i_i_glide_rotatable_bonds>  (1) 
15

>  <i_lp_mmshare_version>  (1) 
72125

>  <i_m_source_file_index>  (1) 
91

>  <i_f3d_flags>  (1) 
0

>  <num_sample>  (1) 
100

>  <b_lp_Chiralities_Consistent>  (1) 
1

>  <r_epik_Charging_Adjusted_Penalty>  (1) 
0.35079833336250127

>  <r_epik_Ionization_Penalty>  (1) 
1.4702178244609605

>  <r_epik_Ionization_Penalty_Charging>  (1) 
0.099885809697688246

>  <r_epik_Ionization_Penalty_Neutral>  (1) 
1.3703320147632723

>  <r_epik_State_Penalty>  (1) 
0.25091252366481304

>  <r_glide_ring_energy>  (1) 
0

>  <r_i_docking_score>  (1) 
-5.235842315420915

>  <r_i_glide_ecoul>  (1) 
-8.3346580864459021

>  <r_i_glide_eff_state_penalty>  (1) 
0.25091252366481304

>  <r_i_glide_einternal>  (1) 
7.6751742237321459

>  <r_i_glide_emodel>  (1) 
-41.986177530553263

>  <r_i_glide_emodel_strain>  (1) 
3.1079031360974625

>  <r_i_glide_energy>  (1) 
-33.738970197962999

>  <r_i_glide_erotb>  (1) 
0.57888693115673628

>  <r_i_glide_esite>  (1) 
-0.15822265138205943

>  <r_i_glide_evdw>  (1) 
-25.4043121115171

>  <r_i_glide_gscore>  (1) 
-5.4867548390857284

>  <r_i_glide_gscore_strain>  (1) 
0

>  <r_i_glide_hbond>  (1) 
-0.51776145837185605

>  <r_i_glide_ligand_efficiency>  (1) 
-0.1277034711078272

>  <r_i_glide_ligand_efficiency_ln>  (1) 
-1.1108013713009324

>  <r_i_glide_ligand_efficiency_sa>  (1) 
-0.44034931073072769

>  <r_i_glide_lipo>  (1) 
-1.9143943307252012

>  <r_i_glide_metal>  (1) 
-0

>  <r_i_glide_rewards>  (1) 
-0.95484901122060761

>  <r_lp_Energy>  (1) 
74.620350999999999

>  <r_lp_tautomer_probability>  (1) 
1

>  <s_epik_Chemistry_Notes>  (1) 
This compound has an imine and may undergo hydrolysis. This compound contains an acetal/aminal-like group ( X-CH(R)-Y where X, Y are N, S, or O) that may be acid/base labile, releasing an aldehyde.

>  <s_epik_cmdline>  (1) 
J2VwaWtfcHl0aG9uJywgJy1waHQnLCAnMS4wJywgJy1waCcsICc3LjQnLCAnLXRuJywgJzgnLCAnLW1hJywgJzUwMCcsICctaW1hZScsICc8aW5maWxlLm1hZT4nLCAnLW9tYWUnLCAnPG91dGZpbGUubWFlPic=

>  <s_epik_input>  (1) 
W0NIM11PW0NIMl1PW0NASF0xW0NIMl1bQ0gyXW4oYzEyKVtjSF1jKG4yKVtDQEBIXTNbQ0gyXVtDQEBIXShbT0hdKU4oW0NAQF0zNDUpW0NASF0oW0NIMl1bQ0BIXShbT0hdKVtDQEBIXTVbQ0BIXTRbT0hdKVtDQEBIXShbQ0gyXVtPSF0pW05IXVtDQEBIXShbT0hdKVtDQEhdKFtDSDNdKUMoXEMoPU8pW09IXSk9Ti9DKD1PKVtDSDNd

>  <s_glide_docking_method>  (1) 
confgen

>  <s_i_glide_gridfile>  (1) 
gpcr_drd2_6luq_protein_autoprepared_prepared

>  <s_lp_Force_Field>  (1) 
S-OPLS

>  <s_lp_Variant>  (1) 
DiffSBDD_90-2

>  <s_m_source_file>  (1) 
generated_generic_title2_ligand_DiffSBDD_2026-06-23_prepared.sdf

>  <GenAI_Model>  (1) 
DiffSBDD

>  <Protein>  (1) 
generic_title2

$$$$
DiffSBDD_46
     RDKit          3D

  0  0  0  0  0  0  0  0  0  0999 V3000
M  V30 BEGIN CTAB
M  V30 COUNTS 41 43 0 0 1
M  V30 BEGIN ATOM
M  V30 1 O 8.193397 5.374997 -15.633673 0
M  V30 2 C 12.549832 8.607934 -9.008096 0
M  V30 3 C 7.258503 5.576342 -14.862408 0
M  V30 4 F 11.374433 8.403258 -4.593462 0
M  V30 5 C 8.709173 6.541685 -12.247195 0
M  V30 6 O 5.762146 7.405578 -14.412057 0
M  V30 7 O 5.391599 5.935354 -11.145345 0
M  V30 8 C 6.755026 4.118366 -12.002019 0
M  V30 9 C 6.223905 4.505419 -14.565416 0
M  V30 10 C 6.326438 5.562932 -12.135185 0 CFG=1
M  V30 11 C 11.604150 8.124917 -8.086897 0
M  V30 12 C 10.940801 7.945720 -5.793290 0
M  V30 13 C 11.311646 7.589900 -10.834237 0
M  V30 14 S 8.994114 6.120072 -10.500519 0
M  V30 15 F 9.681044 8.404175 -5.986263 0
M  V30 16 C 5.572148 7.942934 -15.713837 0
M  V30 17 C 10.359674 7.097098 -9.922010 0
M  V30 18 C 7.072681 6.918678 -14.155692 0 CFG=1
M  V30 19 O 11.775368 8.406752 -6.751276 0
M  V30 20 C 12.404974 8.342448 -10.376632 0
M  V30 21 C 5.794483 4.501062 -13.098423 0 CFG=2
M  V30 22 C 10.498540 7.359777 -8.549023 0
M  V30 23 F 10.936180 6.591075 -5.726238 0
M  V30 24 C 7.221790 6.705404 -12.629161 0 CFG=2
M  V30 25 H 13.391747 9.187982 -8.660762 0
M  V30 26 H 9.186744 7.493082 -12.471236 0
M  V30 27 H 9.208023 5.783410 -12.851334 0
M  V30 28 H 5.871477 6.346810 -10.431778 0
M  V30 29 H 7.772167 3.851127 -12.281944 0
M  V30 30 H 6.360637 3.590228 -11.138029 0
M  V30 31 H 6.571443 3.516347 -14.866939 0
M  V30 32 H 5.375259 4.790089 -15.180169 0
M  V30 33 H 11.213009 7.380114 -11.886602 0
M  V30 34 H 4.572689 8.372177 -15.779660 0
M  V30 35 H 5.665249 7.183091 -16.490964 0
M  V30 36 H 6.286041 8.741149 -15.918246 0
M  V30 37 H 7.785314 7.655071 -14.514515 0
M  V30 38 H 13.137101 8.715156 -11.077698 0
M  V30 39 H 4.768182 4.170813 -12.947516 0
M  V30 40 H 9.765128 6.974668 -7.858040 0
M  V30 41 H 6.875021 7.617563 -12.140463 0
M  V30 END ATOM
M  V30 BEGIN BOND
M  V30 1 2 3 1
M  V30 2 1 9 3
M  V30 3 1 10 7 CFG=1
M  V30 4 1 10 8
M  V30 5 1 11 2
M  V30 6 1 12 4
M  V30 7 1 14 5
M  V30 8 1 15 12
M  V30 9 1 16 6
M  V30 10 2 17 13
M  V30 11 1 17 14
M  V30 12 1 18 3
M  V30 13 1 18 6
M  V30 14 1 19 11
M  V30 15 1 19 12
M  V30 16 2 20 2
M  V30 17 1 20 13
M  V30 18 1 21 8
M  V30 19 1 21 9
M  V30 20 1 21 10
M  V30 21 2 22 11
M  V30 22 1 22 17
M  V30 23 1 23 12
M  V30 24 1 24 5
M  V30 25 1 24 10
M  V30 26 1 24 18
M  V30 27 1 25 2
M  V30 28 1 26 5
M  V30 29 1 27 5
M  V30 30 1 28 7
M  V30 31 1 29 8
M  V30 32 1 30 8
M  V30 33 1 31 9
M  V30 34 1 32 9
M  V30 35 1 33 13
M  V30 36 1 34 16
M  V30 37 1 35 16
M  V30 38 1 36 16
M  V30 39 1 18 37 CFG=3
M  V30 40 1 38 20
M  V30 41 1 21 39 CFG=3
M  V30 42 1 40 22
M  V30 43 1 24 41 CFG=1
M  V30 END BOND
M  V30 END CTAB
M  END
>  <i_epik_Tot_Q>  (1) 
0

>  <i_epik_Tot_abs_Q>  (1) 
0

>  <i_i_glide_confnum>  (1) 
49

>  <i_i_glide_lignum>  (1) 
75

>  <i_i_glide_posenum>  (1) 
269

>  <i_i_glide_rotatable_bonds>  (1) 
7

>  <i_lp_mmshare_version>  (1) 
72125

>  <i_m_source_file_index>  (1) 
47

>  <i_f3d_flags>  (1) 
0

>  <num_sample>  (1) 
100

>  <b_lp_Chiralities_Consistent>  (1) 
1

>  <r_epik_Charging_Adjusted_Penalty>  (1) 
0

>  <r_epik_Ionization_Penalty>  (1) 
3.9372517810782557e-08

>  <r_epik_Ionization_Penalty_Charging>  (1) 
0

>  <r_epik_Ionization_Penalty_Neutral>  (1) 
3.9372517810782557e-08

>  <r_epik_State_Penalty>  (1) 
-0

>  <r_glide_ring_energy>  (1) 
0

>  <r_i_docking_score>  (1) 
-5.2300529446870216

>  <r_i_glide_ecoul>  (1) 
-1.3929690854684456

>  <r_i_glide_eff_state_penalty>  (1) 
-0

>  <r_i_glide_einternal>  (1) 
7.047536169090602

>  <r_i_glide_emodel>  (1) 
-37.027720303302928

>  <r_i_glide_emodel_strain>  (1) 
0.77234371513862499

>  <r_i_glide_energy>  (1) 
-28.251744797117453

>  <r_i_glide_erotb>  (1) 
0.58490147517832547

>  <r_i_glide_esite>  (1) 
0

>  <r_i_glide_evdw>  (1) 
-26.858775711649006

>  <r_i_glide_gscore>  (1) 
-5.2300529446870216

>  <r_i_glide_gscore_strain>  (1) 
0

>  <r_i_glide_hbond>  (1) 
-0.15219078671195824

>  <r_i_glide_ligand_efficiency>  (1) 
-0.21791887269529256

>  <r_i_glide_ligand_efficiency_ln>  (1) 
-1.2517916611551811

>  <r_i_glide_ligand_efficiency_sa>  (1) 
-0.62858680101332109

>  <r_i_glide_lipo>  (1) 
-1.6469085680243294

>  <r_i_glide_metal>  (1) 
-0

>  <r_i_glide_rewards>  (1) 
-2.4639709167263422

>  <r_lp_Energy>  (1) 
18.733408999999998

>  <r_lp_tautomer_probability>  (1) 
1

>  <s_epik_cmdline>  (1) 
J2VwaWtfcHl0aG9uJywgJy1waHQnLCAnMS4wJywgJy1waCcsICc3LjQnLCAnLXRuJywgJzgnLCAnLW1hJywgJzUwMCcsICctaW1hZScsICc8aW5maWxlLm1hZT4nLCAnLW9tYWUnLCAnPG91dGZpbGUubWFlPic=

>  <s_epik_input>  (1) 
W09IXUMxMltDSF0oW0NIMl0xKVtDSDJdQyg9TylbQ0BASF0oT1tDSDNdKVtDQEBIXTJbQ0gyXVNjKFtjSF0zKVtjSF1bY0hdW2NIXWMzT0MoRikoRilG

>  <s_glide_docking_method>  (1) 
confgen

>  <s_i_glide_gridfile>  (1) 
gpcr_drd2_6luq_protein_autoprepared_prepared

>  <s_lp_Force_Field>  (1) 
S-OPLS

>  <s_lp_Variant>  (1) 
DiffSBDD_46-1

>  <s_m_source_file>  (1) 
generated_generic_title2_ligand_DiffSBDD_2026-06-23_prepared.sdf

>  <GenAI_Model>  (1) 
DiffSBDD

>  <Protein>  (1) 
generic_title2

$$$$
DiffSBDD_51
     RDKit          3D

  0  0  0  0  0  0  0  0  0  0999 V3000
M  V30 BEGIN CTAB
M  V30 COUNTS 67 70 0 0 1
M  V30 BEGIN ATOM
M  V30 1 C 11.201848 6.406047 -3.992608 0
M  V30 2 C 9.712654 7.534144 -9.408128 0
M  V30 3 C 11.202982 6.937914 -6.470513 0
M  V30 4 C 11.176567 7.367507 -8.980332 0 CFG=1
M  V30 5 C 10.904125 5.191274 -17.471986 0
M  V30 6 N 12.319960 5.164950 -19.444529 0
M  V30 7 C 7.597941 6.081777 -13.101328 0
M  V30 8 N 9.311025 6.973826 -10.707319 0
M  V30 9 C 8.063018 2.896819 -16.382559 0
M  V30 10 C 11.362273 7.381811 -5.140002 0
M  V30 11 C 9.175677 3.487951 -17.179171 0
M  V30 12 C 10.602096 3.455838 -19.162945 0
M  V30 13 C 9.552530 2.899438 -18.406849 0
M  V30 14 C 9.261005 5.500283 -10.793256 0 CFG=1
M  V30 15 C 7.817348 4.781318 -9.031141 0
M  V30 16 N 8.794659 4.390212 -14.444550 0
M  V30 17 C 12.172836 7.996188 -9.973521 0
M  V30 18 C 8.829518 7.823305 -11.711799 0
M  V30 19 C 7.724037 3.535375 -15.007615 0 CFG=2
M  V30 20 C 9.855073 4.635623 -16.710955 0
M  V30 21 C 11.665243 9.191666 -7.275338 0
M  V30 22 O 7.410998 1.943842 -16.811335 0
M  V30 23 C 9.454384 5.281441 -15.400766 0
M  V30 24 C 12.763623 4.695981 -20.626378 0
M  V30 25 N 13.169375 4.334445 -21.647549 0
M  V30 26 O 8.059202 4.891829 -10.423922 0
M  V30 27 N 8.515077 4.944398 -13.149659 0
M  V30 28 C 11.670291 8.734856 -4.880732 0
M  V30 29 C 7.319580 2.430357 -14.001898 0
M  V30 30 C 11.355955 7.845319 -7.541202 0
M  V30 31 C 8.085914 7.478284 -12.785174 0
M  V30 32 C 11.820401 9.636836 -5.949216 0
M  V30 33 C 9.637515 5.006936 -12.207125 0
M  V30 34 C 11.279576 4.604428 -18.696496 0
M  V30 35 H 11.378806 6.884629 -3.029584 0
M  V30 36 H 11.913566 5.590368 -4.092086 0
M  V30 37 H 10.194376 5.990798 -3.989244 0
M  V30 38 H 9.464712 8.596735 -9.392064 0
M  V30 39 H 9.077546 7.101728 -8.638904 0
M  V30 40 H 10.963518 5.902839 -6.668699 0
M  V30 41 H 11.375892 6.314884 -8.933566 0
M  V30 42 H 11.420167 6.070957 -17.115456 0
M  V30 43 H 12.753635 5.990326 -19.057108 0
M  V30 44 H 7.034004 6.127638 -14.032658 0
M  V30 45 H 6.841614 5.857346 -12.348003 0
M  V30 46 H 10.885654 3.001860 -20.100780 0
M  V30 47 H 9.036089 2.021540 -18.769186 0
M  V30 48 H 10.013277 5.123502 -10.105604 0
M  V30 49 H 7.013674 4.062566 -8.877079 0
M  V30 50 H 7.503381 5.719768 -8.588286 0
M  V30 51 H 8.684708 4.397513 -8.491133 0
M  V30 52 H 13.200881 7.898812 -9.620310 0
M  V30 53 H 11.972529 9.054519 -10.136452 0
M  V30 54 H 12.108435 7.507677 -10.945416 0
M  V30 55 H 9.091655 8.853225 -11.545669 0
M  V30 56 H 6.851199 4.167384 -15.168969 0
M  V30 57 H 11.774767 9.888937 -8.090151 0
M  V30 58 H 8.788254 6.107080 -15.635996 0
M  V30 59 H 10.361793 5.658714 -14.931887 0
M  V30 60 H 11.790592 9.078881 -3.863346 0
M  V30 61 H 6.531938 1.787656 -14.395007 0
M  V30 62 H 6.932499 2.847691 -13.072357 0
M  V30 63 H 8.170040 1.796318 -13.746813 0
M  V30 64 H 7.775521 8.250816 -13.471653 0
M  V30 65 H 12.053743 10.672618 -5.752971 0
M  V30 66 H 10.434896 5.634515 -12.604688 0
M  V30 67 H 10.040290 3.999024 -12.106976 0
M  V30 END ATOM
M  V30 BEGIN BOND
M  V30 1 1 4 2
M  V30 2 1 8 2
M  V30 3 1 10 1
M  V30 4 2 10 3
M  V30 5 1 11 9
M  V30 6 1 13 11
M  V30 7 2 13 12
M  V30 8 1 14 8
M  V30 9 1 17 4
M  V30 10 1 18 8
M  V30 11 1 19 9
M  V30 12 1 19 16
M  V30 13 1 20 5
M  V30 14 2 20 11
M  V30 15 2 22 9
M  V30 16 1 23 16
M  V30 17 1 23 20
M  V30 18 1 24 6
M  V30 19 3 25 24
M  V30 20 1 26 14
M  V30 21 1 26 15
M  V30 22 1 27 7
M  V30 23 1 27 16
M  V30 24 1 28 10
M  V30 25 1 29 19
M  V30 26 1 30 3
M  V30 27 1 30 4
M  V30 28 2 30 21
M  V30 29 1 31 7
M  V30 30 2 31 18
M  V30 31 1 32 21
M  V30 32 2 32 28
M  V30 33 1 33 14
M  V30 34 1 33 27
M  V30 35 2 34 5
M  V30 36 1 34 6
M  V30 37 1 34 12
M  V30 38 1 35 1
M  V30 39 1 36 1
M  V30 40 1 37 1
M  V30 41 1 38 2
M  V30 42 1 39 2
M  V30 43 1 40 3
M  V30 44 1 4 41 CFG=1
M  V30 45 1 42 5
M  V30 46 1 43 6
M  V30 47 1 44 7
M  V30 48 1 45 7
M  V30 49 1 46 12
M  V30 50 1 47 13
M  V30 51 1 14 48 CFG=1
M  V30 52 1 49 15
M  V30 53 1 50 15
M  V30 54 1 51 15
M  V30 55 1 52 17
M  V30 56 1 53 17
M  V30 57 1 54 17
M  V30 58 1 55 18
M  V30 59 1 19 56 CFG=3
M  V30 60 1 57 21
M  V30 61 1 58 23
M  V30 62 1 59 23
M  V30 63 1 60 28
M  V30 64 1 61 29
M  V30 65 1 62 29
M  V30 66 1 63 29
M  V30 67 1 64 31
M  V30 68 1 65 32
M  V30 69 1 66 33
M  V30 70 1 67 33
M  V30 END BOND
M  V30 END CTAB
M  END
>  <i_epik_Tot_Q>  (1) 
0

>  <i_epik_Tot_abs_Q>  (1) 
0

>  <i_i_glide_confnum>  (1) 
92

>  <i_i_glide_lignum>  (1) 
80

>  <i_i_glide_posenum>  (1) 
259

>  <i_i_glide_rotatable_bonds>  (1) 
6

>  <i_lp_mmshare_version>  (1) 
72125

>  <i_m_source_file_index>  (1) 
52

>  <i_f3d_flags>  (1) 
0

>  <num_sample>  (1) 
100

>  <b_lp_Chiralities_Consistent>  (1) 
1

>  <r_epik_Charging_Adjusted_Penalty>  (1) 
7.4502254237452924e-08

>  <r_epik_Ionization_Penalty>  (1) 
0.00022335133816854321

>  <r_epik_Ionization_Penalty_Charging>  (1) 
7.4502254237452924e-08

>  <r_epik_Ionization_Penalty_Neutral>  (1) 
0.00022327683591430577

>  <r_epik_State_Penalty>  (1) 
-0

>  <r_glide_ring_energy>  (1) 
0

>  <r_i_docking_score>  (1) 
-5.2269319864145221

>  <r_i_glide_ecoul>  (1) 
0.31707181408850255

>  <r_i_glide_eff_state_penalty>  (1) 
-0

>  <r_i_glide_einternal>  (1) 
10.829225753500769

>  <r_i_glide_emodel>  (1) 
-41.384455704412659

>  <r_i_glide_emodel_strain>  (1) 
0.25873823579888011

>  <r_i_glide_energy>  (1) 
-35.314732683077999

>  <r_i_glide_erotb>  (1) 
0.47630443723403276

>  <r_i_glide_esite>  (1) 
-0.10878153328457139

>  <r_i_glide_evdw>  (1) 
-35.631804497166499

>  <r_i_glide_gscore>  (1) 
-5.2269319864145221

>  <r_i_glide_gscore_strain>  (1) 
0

>  <r_i_glide_hbond>  (1) 
0

>  <r_i_glide_ligand_efficiency>  (1) 
-0.15373329371807418

>  <r_i_glide_ligand_efficiency_ln>  (1) 
-1.1547758862751591

>  <r_i_glide_ligand_efficiency_sa>  (1) 
-0.49803619257833076

>  <r_i_glide_lipo>  (1) 
-2.6359810816870604

>  <r_i_glide_metal>  (1) 
-0

>  <r_i_glide_rewards>  (1) 
-1.224444355931873

>  <r_lp_Energy>  (1) 
38.248024999999998

>  <r_lp_tautomer_probability>  (1) 
1

>  <s_epik_Chemistry_Notes>  (1) 
This compound has an imine and may undergo hydrolysis. This compound contains an acetal/aminal-like group ( X-CH(R)-Y where X, Y are N, S, or O) that may be acid/base labile, releasing an aldehyde.

>  <s_epik_cmdline>  (1) 
J2VwaWtfcHl0aG9uJywgJy1waHQnLCAnMS4wJywgJy1waCcsICc3LjQnLCAnLXRuJywgJzgnLCAnLW1hJywgJzUwMCcsICctaW1hZScsICc8aW5maWxlLm1hZT4nLCAnLW9tYWUnLCAnPG91dGZpbGUubWFlPic=

>  <s_epik_input>  (1) 
W0NIM11jMVtjSF1jKFtjSF1bY0hdW2NIXTEpW0NASF0oW0NIM10pW0NIMl1OMltDQEBIXShPW0NIM10pW0NIMl1OKFtDSDJdW0NIXT1bQ0hdMilOKFtDQEBIXShDMz1PKVtDSDNdKVtDSDJdYyhjMzQpW2NIXWMoW05IXUMjTilbY0hdW2NIXTQ=

>  <s_glide_docking_method>  (1) 
confgen

>  <s_i_glide_gridfile>  (1) 
gpcr_drd2_6luq_protein_autoprepared_prepared

>  <s_lp_Force_Field>  (1) 
S-OPLS

>  <s_lp_Variant>  (1) 
DiffSBDD_51-1

>  <s_m_source_file>  (1) 
generated_generic_title2_ligand_DiffSBDD_2026-06-23_prepared.sdf

>  <GenAI_Model>  (1) 
DiffSBDD

>  <Protein>  (1) 
generic_title2

$$$$
DiffSBDD_64
     RDKit          3D

  0  0  0  0  0  0  0  0  0  0999 V3000
M  V30 BEGIN CTAB
M  V30 COUNTS 77 80 0 0 1
M  V30 BEGIN ATOM
M  V30 1 C 8.939448 6.158339 -11.148918 0
M  V30 2 C 4.876705 5.695940 -20.295328 0
M  V30 3 C 8.888824 5.972936 -8.571741 0 CFG=2
M  V30 4 C 6.266675 7.603949 -14.879217 0
M  V30 5 C 6.699270 8.506573 -21.433143 0
M  V30 6 C 9.966098 6.533723 -6.164067 0
M  V30 7 C 6.077739 6.320242 -14.060267 0 CFG=1
M  V30 8 O 5.018575 5.659747 -22.647269 0
M  V30 9 C 9.819613 8.212390 -8.057914 0
M  V30 10 C 9.775391 4.730636 -8.641030 0
M  V30 11 C 6.109890 7.461932 -16.395085 0
M  V30 12 C 5.398599 8.899600 -22.124469 0
M  V30 13 C 4.420811 7.786076 -21.742698 0
M  V30 14 C 11.404660 7.593233 -9.926093 0
M  V30 15 N 8.977704 6.790222 -9.800874 0 CFG=1 CHG=1
M  V30 16 C 8.329721 8.507616 -12.163535 0
M  V30 17 C 5.273710 6.508471 -21.544885 0 CFG=1
M  V30 18 C 9.189495 6.980270 -7.411370 0 CFG=1
M  V30 19 C 9.947495 7.894322 -9.543034 0 CFG=1
M  V30 20 C 6.886071 5.189541 -14.687688 0
M  V30 21 C 6.457734 5.097313 -16.141098 0
M  V30 22 C 5.225614 6.351344 -18.946551 0
M  V30 23 C 7.808462 6.531324 -19.233539 0
M  V30 24 C 7.788584 6.224405 -20.745380 0
M  V30 25 C 6.750117 6.981513 -21.608373 0 CFG=2
M  V30 26 S 6.421589 6.521107 -12.289796 0
M  V30 27 N 6.818062 6.266336 -16.951112 0 CFG=1 CHG=1
M  V30 28 C 6.630477 5.978634 -18.414867 0 CFG=1
M  V30 29 C 8.180746 6.981707 -12.227069 0 CFG=2
M  V30 30 H 8.432135 5.196547 -11.071106 0
M  V30 31 H 9.946530 5.919982 -11.487330 0
M  V30 32 H 3.803076 5.514470 -20.334056 0
M  V30 33 H 5.316326 4.699346 -20.336219 0
M  V30 34 H 7.855428 5.628056 -8.493725 0
M  V30 35 H 5.501292 8.318086 -14.587968 0
M  V30 36 H 7.253557 8.023907 -14.707710 0
M  V30 37 H 7.568919 9.009932 -21.857761 0
M  V30 38 H 6.629548 8.790320 -20.385310 0
M  V30 39 H 10.856904 5.947950 -6.383045 0
M  V30 40 H 10.291430 7.399063 -5.586656 0
M  V30 41 H 9.313494 5.990184 -5.492026 0
M  V30 42 H 5.023244 6.045013 -14.105093 0
M  V30 43 H 5.614756 4.927014 -22.612755 0
M  V30 44 H 10.776495 8.489021 -7.613485 0
M  V30 45 H 9.151347 9.064117 -7.917974 0
M  V30 46 H 10.796297 4.946561 -8.347985 0
M  V30 47 H 9.782506 4.255302 -9.618974 0
M  V30 48 H 9.375412 3.974809 -7.985008 0
M  V30 49 H 6.496265 8.390155 -16.785029 0
M  V30 50 H 5.043135 7.438780 -16.615457 0
M  V30 51 H 5.547567 8.903796 -23.204494 0
M  V30 52 H 5.045422 9.888344 -21.831419 0
M  V30 53 H 3.640071 7.667833 -22.496076 0
M  V30 54 H 3.915279 8.065886 -20.818973 0
M  V30 55 H 11.801683 6.790226 -9.316792 0
M  V30 56 H 12.031762 8.466062 -9.739159 0
M  V30 57 H 11.528404 7.341208 -10.977883 0
M  V30 58 H 9.377795 8.790530 -12.230978 0
M  V30 59 H 7.820161 9.014404 -12.973645 0
M  V30 60 H 7.889144 8.919941 -11.256501 0
M  V30 61 H 8.233912 7.315233 -7.012654 0
M  V30 62 H 9.663233 8.795536 -10.063269 0
M  V30 63 H 6.665148 4.252624 -14.173890 0
M  V30 64 H 7.963386 5.331537 -14.634404 0
M  V30 65 H 5.375512 5.190231 -16.159942 0
M  V30 66 H 6.805189 4.155349 -16.566948 0
M  V30 67 H 4.486104 5.990426 -18.233096 0
M  V30 68 H 5.095392 7.432864 -18.989574 0
M  V30 69 H 8.724834 6.097958 -18.830890 0
M  V30 70 H 7.920516 7.590233 -19.072784 0
M  V30 71 H 7.688699 5.150471 -20.906912 0
M  V30 72 H 8.774936 6.477404 -21.136064 0
M  V30 73 H 7.079627 6.840830 -22.639703 0
M  V30 74 H 6.719840 4.899949 -18.549183 0
M  V30 75 H 8.624929 6.684323 -13.171526 0
M  V30 76 H 7.809858 6.398851 -16.814830 0
M  V30 77 H 8.052500 7.264621 -9.718261 0
M  V30 END ATOM
M  V30 BEGIN BOND
M  V30 1 1 7 4
M  V30 2 1 10 3
M  V30 3 1 11 4
M  V30 4 1 12 5
M  V30 5 1 13 12
M  V30 6 1 15 1
M  V30 7 1 15 3
M  V30 8 1 17 2
M  V30 9 1 17 8 CFG=3
M  V30 10 1 17 13
M  V30 11 1 18 3
M  V30 12 1 18 6
M  V30 13 1 18 9
M  V30 14 1 19 9
M  V30 15 1 19 14
M  V30 16 1 19 15
M  V30 17 1 20 7
M  V30 18 1 21 20
M  V30 19 1 22 2
M  V30 20 1 24 23
M  V30 21 1 25 5
M  V30 22 1 25 17
M  V30 23 1 25 24
M  V30 24 1 26 7
M  V30 25 1 27 11
M  V30 26 1 27 21
M  V30 27 1 28 22
M  V30 28 1 28 23
M  V30 29 1 28 27
M  V30 30 1 29 1
M  V30 31 1 29 16
M  V30 32 1 29 26
M  V30 33 1 30 1
M  V30 34 1 31 1
M  V30 35 1 32 2
M  V30 36 1 33 2
M  V30 37 1 3 34 CFG=1
M  V30 38 1 35 4
M  V30 39 1 36 4
M  V30 40 1 37 5
M  V30 41 1 38 5
M  V30 42 1 39 6
M  V30 43 1 40 6
M  V30 44 1 41 6
M  V30 45 1 7 42 CFG=1
M  V30 46 1 43 8
M  V30 47 1 44 9
M  V30 48 1 45 9
M  V30 49 1 46 10
M  V30 50 1 47 10
M  V30 51 1 48 10
M  V30 52 1 49 11
M  V30 53 1 50 11
M  V30 54 1 51 12
M  V30 55 1 52 12
M  V30 56 1 53 13
M  V30 57 1 54 13
M  V30 58 1 55 14
M  V30 59 1 56 14
M  V30 60 1 57 14
M  V30 61 1 58 16
M  V30 62 1 59 16
M  V30 63 1 60 16
M  V30 64 1 18 61 CFG=1
M  V30 65 1 19 62 CFG=3
M  V30 66 1 63 20
M  V30 67 1 64 20
M  V30 68 1 65 21
M  V30 69 1 66 21
M  V30 70 1 67 22
M  V30 71 1 68 22
M  V30 72 1 69 23
M  V30 73 1 70 23
M  V30 74 1 71 24
M  V30 75 1 72 24
M  V30 76 1 25 73 CFG=3
M  V30 77 1 28 74 CFG=1
M  V30 78 1 29 75 CFG=3
M  V30 79 1 27 76 CFG=3
M  V30 80 1 15 77 CFG=3
M  V30 END BOND
M  V30 END CTAB
M  END
>  <i_epik_Tot_Q>  (1) 
2

>  <i_epik_Tot_abs_Q>  (1) 
2

>  <i_i_glide_confnum>  (1) 
137

>  <i_i_glide_lignum>  (1) 
104

>  <i_i_glide_posenum>  (1) 
175

>  <i_i_glide_rotatable_bonds>  (1) 
6

>  <i_lp_mmshare_version>  (1) 
72125

>  <i_m_source_file_index>  (1) 
65

>  <i_f3d_flags>  (1) 
0

>  <num_sample>  (1) 
100

>  <b_lp_Chiralities_Consistent>  (1) 
1

>  <r_epik_Charging_Adjusted_Penalty>  (1) 
0.010385271147369776

>  <r_epik_Ionization_Penalty>  (1) 
0.010385491156522124

>  <r_epik_Ionization_Penalty_Charging>  (1) 
0.010385271147369776

>  <r_epik_Ionization_Penalty_Neutral>  (1) 
2.2000915234807092e-07

>  <r_epik_State_Penalty>  (1) 
-0

>  <r_glide_ring_energy>  (1) 
0.15487863939553237

>  <r_i_docking_score>  (1) 
-5.2259776024960978

>  <r_i_glide_ecoul>  (1) 
-8.9446564627885543

>  <r_i_glide_eff_state_penalty>  (1) 
-0

>  <r_i_glide_einternal>  (1) 
8.8591492053684355

>  <r_i_glide_emodel>  (1) 
-27.393201542865398

>  <r_i_glide_emodel_strain>  (1) 
5.8152623407073776

>  <r_i_glide_energy>  (1) 
-29.73128673984769

>  <r_i_glide_erotb>  (1) 
0.5496323063178965

>  <r_i_glide_esite>  (1) 
-0.10000000000000001

>  <r_i_glide_evdw>  (1) 
-20.786630277059135

>  <r_i_glide_gscore>  (1) 
-5.2259776024960978

>  <r_i_glide_gscore_strain>  (1) 
0.45381558517684439

>  <r_i_glide_hbond>  (1) 
-0.084560060155831118

>  <r_i_glide_ligand_efficiency>  (1) 
-0.18020612422400337

>  <r_i_glide_ligand_efficiency_ln>  (1) 
-1.1966163516136901

>  <r_i_glide_ligand_efficiency_sa>  (1) 
-0.55365030754503963

>  <r_i_glide_lipo>  (1) 
-2.2976653310979116

>  <r_i_glide_metal>  (1) 
-0

>  <r_i_glide_rewards>  (1) 
-1.3661701194658558

>  <r_lp_Energy>  (1) 
54.489440999999999

>  <r_lp_tautomer_probability>  (1) 
1

>  <s_epik_cmdline>  (1) 
J2VwaWtfcHl0aG9uJywgJy1waHQnLCAnMS4wJywgJy1waCcsICc3LjQnLCAnLXRuJywgJzgnLCAnLW1hJywgJzUwMCcsICctaW1hZScsICc8aW5maWxlLm1hZT4nLCAnLW9tYWUnLCAnPG91dGZpbGUubWFlPic=

>  <s_epik_input>  (1) 
W0NIM11bQ0BIXTFbQ0gyXVtDQEBIXShbQ0gzXSlOKFtDQEhdMVtDSDNdKVtDSDJdW0NASF0oW0NIM10pU1tDSF0yW0NIMl1bQ0gyXU4oW0NIMl1bQ0gyXTIpW0NAQEhdKFtDSDJdW0NIMl0zKVtDSDJdW0NIMl1bQ0BASF0oW0NAQF0zNFtPSF0pW0NIMl1bQ0gyXVtDSDJdNA==

>  <s_glide_docking_method>  (1) 
confgen

>  <s_i_glide_gridfile>  (1) 
gpcr_drd2_6luq_protein_autoprepared_prepared

>  <s_lp_Force_Field>  (1) 
S-OPLS

>  <s_lp_Variant>  (1) 
DiffSBDD_64-3

>  <s_m_source_file>  (1) 
generated_generic_title2_ligand_DiffSBDD_2026-06-23_prepared.sdf

>  <GenAI_Model>  (1) 
DiffSBDD

>  <Protein>  (1) 
generic_title2

$$$$
DiffSBDD_4
     RDKit          3D

  0  0  0  0  0  0  0  0  0  0999 V3000
M  V30 BEGIN CTAB
M  V30 COUNTS 76 80 0 0 1
M  V30 BEGIN ATOM
M  V30 1 C 8.457935 6.003766 -10.698275 0 CFG=1
M  V30 2 C 7.637940 6.358704 -13.560563 0 CFG=2
M  V30 3 C 8.370758 5.113258 -16.167310 0
M  V30 4 O 5.704520 4.790399 -19.185516 0
M  V30 5 C 8.075960 4.749713 -18.687625 0 CFG=1
M  V30 6 O 8.175409 5.684953 -7.523907 0
M  V30 7 C 8.426996 4.817180 -11.686635 0 CFG=2
M  V30 8 C 12.062126 9.288699 -7.403815 0 CFG=2
M  V30 9 C 6.906277 5.607810 -15.987179 0 CFG=2
M  V30 10 C 9.573602 5.904849 -9.668003 0 CFG=2
M  V30 11 C 8.798123 6.587260 -20.062303 0
M  V30 12 O 12.526055 7.988643 -7.585025 0
M  V30 13 C 4.897100 6.713674 -17.265960 0
M  V30 14 C 8.224896 3.700137 -19.817544 0
M  V30 15 C 12.461837 10.286396 -6.338299 0
M  V30 16 C 6.619895 5.208896 -18.475564 0
M  V30 17 O 10.175478 9.189504 -5.985066 0
M  V30 18 C 8.612034 7.342027 -11.466150 0
M  V30 19 C 10.901649 6.115631 -6.128880 0
M  V30 20 C 9.549443 8.242779 -6.869044 0
M  V30 21 O 11.385665 7.249075 -8.227085 0
M  V30 22 C 9.645990 7.567167 -20.403844 0
M  V30 23 C 11.580969 9.150000 -5.970394 0 CFG=1
M  V30 24 C 8.549893 4.147235 -17.352529 0
M  V30 25 C 9.775495 4.760078 -8.721371 0
M  V30 26 C 6.364504 6.208324 -17.327299 0 CFG=2
M  V30 27 O 9.706365 4.627490 -12.258405 0
M  V30 28 C 4.466366 7.550861 -18.483483 0
M  V30 29 C 6.752539 6.603236 -14.802236 0
M  V30 30 C 10.330179 6.945955 -7.299341 0 CFG=1
M  V30 31 C 7.381243 5.034207 -12.806352 0
M  V30 32 C 9.377992 6.083978 -8.150588 0 CFG=2
M  V30 33 O 8.934656 5.880897 -18.893898 0
M  V30 34 C 7.565498 7.526116 -12.567653 0
M  V30 35 H 7.505544 5.990135 -10.171737 0
M  V30 36 H 8.664623 6.344629 -13.908569 0
M  V30 37 H 9.036618 5.967475 -16.290474 0
M  V30 38 H 8.719251 4.587850 -15.280294 0
M  V30 39 H 7.534721 6.400512 -7.585058 0
M  V30 40 H 8.180328 3.910043 -11.139964 0
M  V30 41 H 11.390634 9.594932 -8.200780 0
M  V30 42 H 6.302931 4.737431 -15.733270 0
M  V30 43 H 10.491910 6.298707 -10.094059 0
M  V30 44 H 7.952119 6.270631 -20.654735 0
M  V30 45 H 4.213034 5.877606 -17.131571 0
M  V30 46 H 4.761297 7.350228 -16.392819 0
M  V30 47 H 7.664781 2.792961 -19.584791 0
M  V30 48 H 7.859589 4.057646 -20.779986 0
M  V30 49 H 9.268931 3.413510 -19.949115 0
M  V30 50 H 13.491182 10.250432 -5.987993 0
M  V30 51 H 12.017387 11.275781 -6.384527 0
M  V30 52 H 8.575408 8.189864 -10.785009 0
M  V30 53 H 9.601565 7.385241 -11.922820 0
M  V30 54 H 10.118324 5.898868 -5.405740 0
M  V30 55 H 11.369121 5.197861 -6.483876 0
M  V30 56 H 11.700644 6.582766 -5.574421 0
M  V30 57 H 9.243462 8.780755 -7.767681 0
M  V30 58 H 8.613599 7.966397 -6.383038 0
M  V30 59 H 9.522928 8.113452 -21.327916 0
M  V30 60 H 10.473317 7.834768 -19.763541 0
M  V30 61 H 12.017686 8.523027 -5.201772 0
M  V30 62 H 9.601039 3.865935 -17.430495 0
M  V30 63 H 8.004066 3.223909 -17.148913 0
M  V30 64 H 10.745849 4.429022 -8.385017 0
M  V30 65 H 9.031401 3.990231 -8.720411 0
M  V30 66 H 6.975489 7.079139 -17.558255 0
M  V30 67 H 9.702360 3.842438 -12.784802 0
M  V30 68 H 3.463180 7.952956 -18.339246 0
M  V30 69 H 5.143022 8.390302 -18.639307 0
M  V30 70 H 4.450689 6.972357 -19.405890 0
M  V30 71 H 5.710607 6.632028 -14.482350 0
M  V30 72 H 6.975800 7.604475 -15.172710 0
M  V30 73 H 6.381815 5.055251 -12.368043 0
M  V30 74 H 7.389349 4.182994 -13.486989 0
M  V30 75 H 6.567349 7.606394 -12.132048 0
M  V30 76 H 7.775388 8.464552 -13.080893 0
M  V30 END ATOM
M  V30 BEGIN BOND
M  V30 1 1 7 1
M  V30 2 1 9 3
M  V30 3 1 10 1
M  V30 4 1 12 8
M  V30 5 1 14 5
M  V30 6 1 15 8
M  V30 7 2 16 4
M  V30 8 1 16 5
M  V30 9 1 18 1
M  V30 10 1 20 17
M  V30 11 1 21 12
M  V30 12 2 22 11
M  V30 13 1 23 8
M  V30 14 1 23 15
M  V30 15 1 23 17
M  V30 16 1 24 3
M  V30 17 1 24 5
M  V30 18 1 25 10
M  V30 19 1 26 9
M  V30 20 1 26 13
M  V30 21 1 26 16
M  V30 22 1 27 7
M  V30 23 1 28 13
M  V30 24 1 29 2
M  V30 25 1 29 9
M  V30 26 1 30 19 CFG=1
M  V30 27 1 30 20
M  V30 28 1 30 21
M  V30 29 1 31 2
M  V30 30 1 31 7
M  V30 31 1 32 6 CFG=3
M  V30 32 1 32 10
M  V30 33 1 32 25
M  V30 34 1 32 30
M  V30 35 1 5 33 CFG=3
M  V30 36 1 33 11
M  V30 37 1 34 2
M  V30 38 1 34 18
M  V30 39 1 1 35 CFG=1
M  V30 40 1 2 36 CFG=3
M  V30 41 1 37 3
M  V30 42 1 38 3
M  V30 43 1 39 6
M  V30 44 1 7 40 CFG=1
M  V30 45 1 8 41 CFG=3
M  V30 46 1 9 42 CFG=1
M  V30 47 1 10 43 CFG=3
M  V30 48 1 44 11
M  V30 49 1 45 13
M  V30 50 1 46 13
M  V30 51 1 47 14
M  V30 52 1 48 14
M  V30 53 1 49 14
M  V30 54 1 50 15
M  V30 55 1 51 15
M  V30 56 1 52 18
M  V30 57 1 53 18
M  V30 58 1 54 19
M  V30 59 1 55 19
M  V30 60 1 56 19
M  V30 61 1 57 20
M  V30 62 1 58 20
M  V30 63 1 59 22
M  V30 64 1 60 22
M  V30 65 1 23 61 CFG=1
M  V30 66 1 62 24
M  V30 67 1 63 24
M  V30 68 1 64 25
M  V30 69 1 65 25
M  V30 70 1 26 66 CFG=3
M  V30 71 1 67 27
M  V30 72 1 68 28
M  V30 73 1 69 28
M  V30 74 1 70 28
M  V30 75 1 71 29
M  V30 76 1 72 29
M  V30 77 1 73 31
M  V30 78 1 74 31
M  V30 79 1 75 34
M  V30 80 1 76 34
M  V30 END BOND
M  V30 END CTAB
M  END
>  <i_epik_Tot_Q>  (1) 
0

>  <i_epik_Tot_abs_Q>  (1) 
0

>  <i_i_glide_confnum>  (1) 
17

>  <i_i_glide_lignum>  (1) 
8

>  <i_i_glide_posenum>  (1) 
150

>  <i_i_glide_rotatable_bonds>  (1) 
9

>  <i_lp_mmshare_version>  (1) 
72125

>  <i_m_source_file_index>  (1) 
5

>  <i_f3d_flags>  (1) 
0

>  <num_sample>  (1) 
100

>  <b_lp_Chiralities_Consistent>  (1) 
1

>  <r_epik_Charging_Adjusted_Penalty>  (1) 
0

>  <r_epik_Ionization_Penalty>  (1) 
6.2478277439111229e-07

>  <r_epik_Ionization_Penalty_Charging>  (1) 
0

>  <r_epik_Ionization_Penalty_Neutral>  (1) 
6.2478277439111229e-07

>  <r_epik_State_Penalty>  (1) 
-0

>  <r_glide_ring_energy>  (1) 
0

>  <r_i_docking_score>  (1) 
-5.2238228933490189

>  <r_i_glide_ecoul>  (1) 
-5.430355083013235

>  <r_i_glide_eff_state_penalty>  (1) 
-0

>  <r_i_glide_einternal>  (1) 
19.394088929828715

>  <r_i_glide_emodel>  (1) 
-25.002528853921163

>  <r_i_glide_emodel_strain>  (1) 
2.763689774306954

>  <r_i_glide_energy>  (1) 
-29.307678418754218

>  <r_i_glide_erotb>  (1) 
0.53077912702887098

>  <r_i_glide_esite>  (1) 
0

>  <r_i_glide_evdw>  (1) 
-23.877323335740982

>  <r_i_glide_gscore>  (1) 
-5.2238228933490189

>  <r_i_glide_gscore_strain>  (1) 
0

>  <r_i_glide_hbond>  (1) 
-0.18063433605532964

>  <r_i_glide_ligand_efficiency>  (1) 
-0.15364184980438292

>  <r_i_glide_ligand_efficiency_ln>  (1) 
-1.1540890004098829

>  <r_i_glide_ligand_efficiency_sa>  (1) 
-0.49773994979638153

>  <r_i_glide_lipo>  (1) 
-2.6077087253248648

>  <r_i_glide_metal>  (1) 
-0

>  <r_i_glide_rewards>  (1) 
-0.95783952975865994

>  <r_lp_Energy>  (1) 
51.660091999999999

>  <r_lp_tautomer_probability>  (1) 
1

>  <s_epik_cmdline>  (1) 
J2VwaWtfcHl0aG9uJywgJy1waHQnLCAnMS4wJywgJy1waCcsICc3LjQnLCAnLXRuJywgJzgnLCAnLW1hJywgJzUwMCcsICctaW1hZScsICc8aW5maWxlLm1hZT4nLCAnLW9tYWUnLCAnPG91dGZpbGUubWFlPic=

>  <s_epik_input>  (1) 
W0NAQEhdMTJbQ0BASF0oW0NIMl0yKU9bQ0gyXVtDQF0oW0NIM10pKE9PMSlbQ0BAXTMoW09IXSlbQ0BASF0oW0NIMl0zKVtDQEBIXTRbQ0BIXShbT0hdKVtDSDJdW0NASF0oW0NIMl1bQ0gyXTQpW0NIMl1bQ0BIXShbQ0gyXVtDSDJdNSlbQ0BIXShbQ0gyXVtDSDNdKUMoPU8pW0NAQF01KFtDSDNdKU9bQ0hdPVtDSDJd

>  <s_glide_docking_method>  (1) 
confgen

>  <s_i_glide_gridfile>  (1) 
gpcr_drd2_6luq_protein_autoprepared_prepared

>  <s_lp_Force_Field>  (1) 
S-OPLS

>  <s_lp_Variant>  (1) 
DiffSBDD_4-1

>  <s_m_source_file>  (1) 
generated_generic_title2_ligand_DiffSBDD_2026-06-23_prepared.sdf

>  <GenAI_Model>  (1) 
DiffSBDD

>  <Protein>  (1) 
generic_title2

$$$$
DiffSBDD_78
     RDKit          3D

  0  0  0  0  0  0  0  0  0  0999 V3000
M  V30 BEGIN CTAB
M  V30 COUNTS 80 84 0 0 1
M  V30 BEGIN ATOM
M  V30 1 C 11.510607 8.498299 -7.532010 0 CFG=2
M  V30 2 C 12.999116 8.578692 -7.864276 0
M  V30 3 C 6.512488 3.230264 -13.478187 0 CFG=1
M  V30 4 C 6.709601 5.289465 -15.336961 0 CFG=2
M  V30 5 C 11.157893 7.765131 -6.241167 0
M  V30 6 N 5.915144 7.007767 -16.988471 0
M  V30 7 C 7.961350 4.396913 -15.093583 0 CFG=1
M  V30 8 C 7.912561 5.203474 -12.675226 0 CFG=1
M  V30 9 N 10.711748 7.785657 -8.550214 0 CFG=1 CHG=1
M  V30 10 C 9.382503 7.630898 -7.917614 0
M  V30 11 N 7.995484 6.535470 -11.984472 0 CFG=2 CHG=1
M  V30 12 C 5.472263 4.885883 -11.879383 0
M  V30 13 C 6.975307 6.600443 -16.058056 0
M  V30 14 C 5.244120 7.276396 -19.362139 0
M  V30 15 O 5.992819 5.468867 -14.111858 0
M  V30 16 C 7.495971 7.701457 -12.756827 0
M  V30 17 C 5.630393 6.810010 -20.780486 0 CFG=1
M  V30 18 C 7.701572 2.291086 -13.391491 0
M  V30 19 C 6.475562 4.699785 -13.001490 0 CFG=2
M  V30 20 F 6.908873 7.121984 -20.999190 0
M  V30 21 C 9.663774 7.458950 -6.416217 0
M  V30 22 C 5.859166 4.199516 -10.588349 0
M  V30 23 O 5.849977 5.174108 -18.457744 0
M  V30 24 C 8.789240 5.043751 -13.953258 0
M  V30 25 C 5.484821 5.278572 -20.867355 0 CFG=1
M  V30 26 C 9.567809 8.180794 -10.827477 0
M  V30 27 C 6.138229 6.532694 -18.353625 0 CFG=2
M  V30 28 C 10.793442 8.376867 -9.914829 0
M  V30 29 C 9.321670 6.742050 -11.328561 0
M  V30 30 C 4.833433 7.532145 -21.873916 0
M  V30 31 C 6.228955 4.594917 -19.705048 0
M  V30 32 C 7.408938 3.042828 -14.675272 0 CFG=1
M  V30 33 F 4.198885 4.921414 -20.829926 0
M  V30 34 H 11.143403 9.520186 -7.438532 0
M  V30 35 H 13.546269 9.103599 -7.079982 0
M  V30 36 H 13.423642 7.590184 -7.984981 0
M  V30 37 H 13.178819 9.125750 -8.788443 0
M  V30 38 H 5.535912 2.756783 -13.552043 0
M  V30 39 H 6.029623 4.790185 -15.988497 0
M  V30 40 H 11.373982 8.347689 -5.345980 0
M  V30 41 H 11.719490 6.831088 -6.172466 0
M  V30 42 H 5.015936 6.675355 -16.653318 0
M  V30 43 H 8.558521 4.277599 -15.998413 0
M  V30 44 H 8.305500 4.514348 -11.926596 0
M  V30 45 H 8.810773 8.549598 -8.056373 0
M  V30 46 H 8.813575 6.794050 -8.325474 0
M  V30 47 H 5.239291 5.936348 -11.702972 0
M  V30 48 H 4.574007 4.401932 -12.230407 0
M  V30 49 H 7.875789 6.390219 -16.627332 0
M  V30 50 H 7.188510 7.401188 -15.357815 0
M  V30 51 H 4.196993 7.063587 -19.143019 0
M  V30 52 H 5.393409 8.350540 -19.253662 0
M  V30 53 H 8.175399 7.969824 -13.560834 0
M  V30 54 H 6.502482 7.539466 -13.164918 0
M  V30 55 H 7.375435 8.577169 -12.120433 0
M  V30 56 H 8.584135 2.561371 -12.819163 0
M  V30 57 H 7.480404 1.224902 -13.384581 0
M  V30 58 H 9.052185 8.165632 -5.858368 0
M  V30 59 H 9.422370 6.456522 -6.061063 0
M  V30 60 H 4.973524 4.106264 -9.985023 0
M  V30 61 H 6.175404 3.190200 -10.786609 0
M  V30 62 H 6.633532 4.724852 -10.028888 0
M  V30 63 H 9.674896 4.446150 -13.731973 0
M  V30 64 H 9.169210 5.990215 -14.302713 0
M  V30 65 H 5.866834 4.909371 -21.820158 0
M  V30 66 H 9.724048 8.789814 -11.717256 0
M  V30 67 H 8.688118 8.610478 -10.358975 0
M  V30 68 H 7.186800 6.695543 -18.611980 0
M  V30 69 H 11.681174 7.980016 -10.409353 0
M  V30 70 H 10.975524 9.443333 -9.798691 0
M  V30 71 H 9.394193 6.038253 -10.499940 0
M  V30 72 H 10.120299 6.479699 -12.023878 0
M  V30 73 H 3.772111 7.319585 -21.788801 0
M  V30 74 H 4.960874 8.612945 -21.806576 0
M  V30 75 H 5.152840 7.215603 -22.866988 0
M  V30 76 H 7.308862 4.684821 -19.835289 0
M  V30 77 H 6.003180 3.527982 -19.684924 0
M  V30 78 H 6.993904 2.458434 -15.494655 0
M  V30 79 H 11.092318 6.851837 -8.608645 0
M  V30 80 H 7.344898 6.488050 -11.207601 0
M  V30 END ATOM
M  V30 BEGIN BOND
M  V30 1 1 2 1
M  V30 2 1 5 1
M  V30 3 1 7 4
M  V30 4 1 9 1
M  V30 5 1 10 9
M  V30 6 1 11 8
M  V30 7 1 13 4
M  V30 8 1 13 6
M  V30 9 1 15 4
M  V30 10 1 16 11
M  V30 11 1 17 14
M  V30 12 1 18 3
M  V30 13 1 19 3
M  V30 14 1 19 8
M  V30 15 1 19 12 CFG=1
M  V30 16 1 19 15
M  V30 17 1 17 20 CFG=3
M  V30 18 1 21 5
M  V30 19 1 21 10
M  V30 20 1 22 12
M  V30 21 1 24 7
M  V30 22 1 24 8
M  V30 23 1 25 17
M  V30 24 1 27 6
M  V30 25 1 27 14
M  V30 26 1 27 23
M  V30 27 1 28 9
M  V30 28 1 28 26
M  V30 29 1 29 11
M  V30 30 1 29 26
M  V30 31 1 30 17
M  V30 32 1 31 23
M  V30 33 1 31 25
M  V30 34 1 32 3
M  V30 35 1 32 7
M  V30 36 1 32 18
M  V30 37 1 33 25
M  V30 38 1 1 34 CFG=1
M  V30 39 1 35 2
M  V30 40 1 36 2
M  V30 41 1 37 2
M  V30 42 1 3 38 CFG=3
M  V30 43 1 4 39 CFG=3
M  V30 44 1 40 5
M  V30 45 1 41 5
M  V30 46 1 42 6
M  V30 47 1 7 43 CFG=3
M  V30 48 1 8 44 CFG=1
M  V30 49 1 45 10
M  V30 50 1 46 10
M  V30 51 1 47 12
M  V30 52 1 48 12
M  V30 53 1 49 13
M  V30 54 1 50 13
M  V30 55 1 51 14
M  V30 56 1 52 14
M  V30 57 1 53 16
M  V30 58 1 54 16
M  V30 59 1 55 16
M  V30 60 1 56 18
M  V30 61 1 57 18
M  V30 62 1 58 21
M  V30 63 1 59 21
M  V30 64 1 60 22
M  V30 65 1 61 22
M  V30 66 1 62 22
M  V30 67 1 63 24
M  V30 68 1 64 24
M  V30 69 1 25 65 CFG=3
M  V30 70 1 66 26
M  V30 71 1 67 26
M  V30 72 1 27 68 CFG=3
M  V30 73 1 69 28
M  V30 74 1 70 28
M  V30 75 1 71 29
M  V30 76 1 72 29
M  V30 77 1 73 30
M  V30 78 1 74 30
M  V30 79 1 75 30
M  V30 80 1 76 31
M  V30 81 1 77 31
M  V30 82 1 32 78 CFG=3
M  V30 83 1 9 79 CFG=3
M  V30 84 1 11 80 CFG=1
M  V30 END BOND
M  V30 END CTAB
M  END
>  <i_epik_Tot_Q>  (1) 
2

>  <i_epik_Tot_abs_Q>  (1) 
2

>  <i_i_glide_confnum>  (1) 
1332

>  <i_i_glide_lignum>  (1) 
130

>  <i_i_glide_posenum>  (1) 
369

>  <i_i_glide_rotatable_bonds>  (1) 
9

>  <i_lp_mmshare_version>  (1) 
72125

>  <i_m_source_file_index>  (1) 
79

>  <i_f3d_flags>  (1) 
0

>  <num_sample>  (1) 
100

>  <b_lp_Chiralities_Consistent>  (1) 
1

>  <r_epik_Charging_Adjusted_Penalty>  (1) 
0.22182564166484353

>  <r_epik_Ionization_Penalty>  (1) 
0.22182564166592098

>  <r_epik_Ionization_Penalty_Charging>  (1) 
0.060182310347739972

>  <r_epik_Ionization_Penalty_Neutral>  (1) 
0.16164333131818101

>  <r_epik_State_Penalty>  (1) 
0.16164333131710357

>  <r_glide_ring_energy>  (1) 
0

>  <r_i_docking_score>  (1) 
-5.2197016016430231

>  <r_i_glide_ecoul>  (1) 
-4.8047160513182021

>  <r_i_glide_eff_state_penalty>  (1) 
0.16164333131710357

>  <r_i_glide_einternal>  (1) 
15.173041966032846

>  <r_i_glide_emodel>  (1) 
-39.373531398257782

>  <r_i_glide_emodel_strain>  (1) 
4.0144939202810264

>  <r_i_glide_energy>  (1) 
-32.39301310646016

>  <r_i_glide_erotb>  (1) 
0.726867567680611

>  <r_i_glide_esite>  (1) 
-0.07299190451623376

>  <r_i_glide_evdw>  (1) 
-27.588297055141958

>  <r_i_glide_gscore>  (1) 
-5.3813449329601264

>  <r_i_glide_gscore_strain>  (1) 
0.0036234800702565906

>  <r_i_glide_hbond>  (1) 
-0.052214843783439296

>  <r_i_glide_ligand_efficiency>  (1) 
-0.15817277580736433

>  <r_i_glide_ligand_efficiency_ln>  (1) 
-1.1608346100369245

>  <r_i_glide_ligand_efficiency_sa>  (1) 
-0.50734460847285445

>  <r_i_glide_lipo>  (1) 
-2.2688960547839501

>  <r_i_glide_metal>  (1) 
-0

>  <r_i_glide_rewards>  (1) 
-1.6176109171725421

>  <r_lp_Energy>  (1) 
68.58846299999999

>  <s_epik_Chemistry_Notes>  (1) 
This compound contains an acetal/aminal-like group ( X-CH(R)-Y where X, Y are N, S, or O) that may be acid/base labile, releasing an aldehyde.

>  <s_epik_cmdline>  (1) 
J2VwaWtfcHl0aG9uJywgJy1waHQnLCAnMS4wJywgJy1waCcsICc3LjQnLCAnLXRuJywgJzgnLCAnLW1hJywgJzUwMCcsICctaW1hZScsICc8aW5maWxlLm1hZT4nLCAnLW9tYWUnLCAnPG91dGZpbGUubWFlPic=

>  <s_epik_input>  (1) 
W0NIM11bQ0BASF0xW0NIMl1bQ0gyXVtDSDJdTjFbQ0gyXVtDSDJdW0NIMl1OKFtDSDNdKVtDQEBIXTJbQ0gyXVtDQEBIXShbQ0BASF0oW0NIMl0zKVtDQEBIXTNbQ0BAXTI0W0NIMl1bQ0gzXSlbQ0BASF0oTzQpW0NIMl1bTkhdW0NASF0oW0NIMl1bQ0BdNShGKVtDSDNdKU9bQ0gyXVtDQEhdNUY=

>  <s_glide_docking_method>  (1) 
confgen

>  <s_i_glide_gridfile>  (1) 
gpcr_drd2_6luq_protein_autoprepared_prepared

>  <s_lp_Force_Field>  (1) 
S-OPLS

>  <s_lp_Variant>  (1) 
DiffSBDD_78-2

>  <s_m_source_file>  (1) 
generated_generic_title2_ligand_DiffSBDD_2026-06-23_prepared.sdf

>  <GenAI_Model>  (1) 
DiffSBDD

>  <Protein>  (1) 
generic_title2

$$$$
DiffSBDD_69
     RDKit          3D

  0  0  0  0  0  0  0  0  0  0999 V3000
M  V30 BEGIN CTAB
M  V30 COUNTS 68 71 0 0 1
M  V30 BEGIN ATOM
M  V30 1 C 11.002244 8.346216 -5.826626 0
M  V30 2 C 8.704163 6.534001 -11.542432 0 CFG=1
M  V30 3 C 7.360069 3.192296 -14.521286 0
M  V30 4 C 9.938724 7.562650 -8.603499 0 CFG=1
M  V30 5 C 11.863736 7.384034 -3.671508 0
M  V30 6 C 11.108524 7.524171 -11.489283 0
M  V30 7 F 12.722961 6.348521 -1.792799 0
M  V30 8 C 11.503419 8.701543 -4.375890 0 CFG=1
M  V30 9 C 10.154746 6.439038 -11.027584 0 CFG=1
M  V30 10 C 9.375271 7.150690 -7.255474 0
M  V30 11 C 8.222221 4.390963 -14.157664 0
M  V30 12 S 11.441563 8.630921 -8.509966 0
M  V30 13 C 12.765889 9.590188 -6.246708 0
M  V30 14 C 12.362646 7.541940 -2.255367 0
M  V30 15 C 6.958148 3.179719 -13.052259 0
M  V30 16 C 11.731313 8.868207 -6.792175 0
M  V30 17 C 6.328736 6.537642 -15.594763 0
M  V30 18 C 7.291441 4.699090 -12.948103 0
M  V30 19 C 12.693535 9.532056 -4.941060 0
M  V30 20 F 13.375404 8.390274 -2.187215 0
M  V30 21 C 8.559221 7.395552 -12.785663 0
M  V30 22 C 5.443615 6.196967 -14.388879 0
M  V30 23 C 5.585688 7.404979 -16.619515 0
M  V30 24 C 9.473109 4.929551 -9.088549 0
M  V30 25 C 7.317631 4.790393 -10.345565 0
M  V30 26 F 11.375381 8.013932 -1.526327 0
M  V30 27 N 8.009519 4.793144 -9.185984 0
M  V30 28 C 8.085130 5.087441 -11.641411 0 CFG=2
M  V30 29 C 10.175457 6.274333 -9.478409 0 CFG=2
M  V30 30 C 5.996823 5.589043 -13.069379 0
M  V30 31 O 6.114328 4.565026 -10.385099 0
M  V30 32 C 9.862016 7.497537 -6.051923 0
M  V30 33 H 8.175379 7.109831 -10.795265 0
M  V30 34 H 6.539171 3.442181 -15.190271 0
M  V30 35 H 7.909859 2.310650 -14.854697 0
M  V30 36 H 9.167349 8.177124 -9.066338 0
M  V30 37 H 10.983801 6.742563 -3.623822 0
M  V30 38 H 12.575395 6.821916 -4.266302 0
M  V30 39 H 10.704304 8.484456 -11.184998 0
M  V30 40 H 12.102189 7.402605 -11.056526 0
M  V30 41 H 11.230137 7.493570 -12.573083 0
M  V30 42 H 10.855384 9.381020 -3.830360 0
M  V30 43 H 10.575058 5.576832 -11.548703 0
M  V30 44 H 8.505756 6.515552 -7.287992 0
M  V30 45 H 8.343901 5.139598 -14.929893 0
M  V30 46 H 9.216152 4.078316 -13.833926 0
M  V30 47 H 13.543726 10.075799 -6.785021 0
M  V30 48 H 7.619844 2.550138 -12.454287 0
M  V30 49 H 5.918271 2.906811 -12.870936 0
M  V30 50 H 7.223153 7.063283 -15.270822 0
M  V30 51 H 6.638084 5.626727 -16.103713 0
M  V30 52 H 13.410003 9.990278 -4.278767 0
M  V30 53 H 8.944745 6.790021 -13.585016 0
M  V30 54 H 7.538212 7.684033 -13.011590 0
M  V30 55 H 9.103096 8.336453 -12.748349 0
M  V30 56 H 4.616154 5.590181 -14.738663 0
M  V30 57 H 4.975485 7.133813 -14.088839 0
M  V30 58 H 6.193414 7.567097 -17.508906 0
M  V30 59 H 4.658689 6.933413 -16.943368 0
M  V30 60 H 5.336978 8.383123 -16.206051 0
M  V30 61 H 9.906530 4.106085 -9.654428 0
M  V30 62 H 9.734217 4.690806 -8.059116 0
M  V30 63 H 7.500980 4.627759 -8.330733 0
M  V30 64 H 8.893653 4.359326 -11.611470 0
M  V30 65 H 11.198695 6.088624 -9.185014 0
M  V30 66 H 5.161441 5.011433 -12.674353 0
M  V30 67 H 6.032389 6.401046 -12.345625 0
M  V30 68 H 9.375416 7.108194 -5.185429 0
M  V30 END ATOM
M  V30 BEGIN BOND
M  V30 1 1 8 1
M  V30 2 1 8 5
M  V30 3 1 9 2
M  V30 4 1 9 6
M  V30 5 1 10 4
M  V30 6 1 11 3
M  V30 7 1 12 4
M  V30 8 1 14 5
M  V30 9 1 14 7
M  V30 10 1 15 3
M  V30 11 2 16 1
M  V30 12 1 16 12
M  V30 13 1 16 13
M  V30 14 1 18 11
M  V30 15 1 18 15
M  V30 16 1 19 8
M  V30 17 2 19 13
M  V30 18 1 20 14
M  V30 19 1 21 2
M  V30 20 1 22 17
M  V30 21 1 23 17
M  V30 22 1 26 14
M  V30 23 1 27 24
M  V30 24 1 27 25
M  V30 25 1 28 2
M  V30 26 1 28 18
M  V30 27 1 28 25
M  V30 28 1 29 4
M  V30 29 1 29 9
M  V30 30 1 29 24
M  V30 31 1 30 18
M  V30 32 1 30 22
M  V30 33 2 31 25
M  V30 34 1 32 1
M  V30 35 2 32 10
M  V30 36 1 2 33 CFG=1
M  V30 37 1 34 3
M  V30 38 1 35 3
M  V30 39 1 4 36 CFG=3
M  V30 40 1 37 5
M  V30 41 1 38 5
M  V30 42 1 39 6
M  V30 43 1 40 6
M  V30 44 1 41 6
M  V30 45 1 8 42 CFG=1
M  V30 46 1 9 43 CFG=3
M  V30 47 1 44 10
M  V30 48 1 45 11
M  V30 49 1 46 11
M  V30 50 1 47 13
M  V30 51 1 48 15
M  V30 52 1 49 15
M  V30 53 1 50 17
M  V30 54 1 51 17
M  V30 55 1 52 19
M  V30 56 1 53 21
M  V30 57 1 54 21
M  V30 58 1 55 21
M  V30 59 1 56 22
M  V30 60 1 57 22
M  V30 61 1 58 23
M  V30 62 1 59 23
M  V30 63 1 60 23
M  V30 64 1 61 24
M  V30 65 1 62 24
M  V30 66 1 63 27
M  V30 67 1 28 64 CFG=1
M  V30 68 1 29 65 CFG=1
M  V30 69 1 66 30
M  V30 70 1 67 30
M  V30 71 1 68 32
M  V30 END BOND
M  V30 END CTAB
M  END
>  <i_epik_Tot_Q>  (1) 
0

>  <i_epik_Tot_abs_Q>  (1) 
0

>  <i_i_glide_confnum>  (1) 
63

>  <i_i_glide_lignum>  (1) 
112

>  <i_i_glide_posenum>  (1) 
118

>  <i_i_glide_rotatable_bonds>  (1) 
7

>  <i_lp_mmshare_version>  (1) 
72125

>  <i_m_source_file_index>  (1) 
70

>  <i_f3d_flags>  (1) 
0

>  <num_sample>  (1) 
100

>  <b_lp_Chiralities_Consistent>  (1) 
1

>  <r_epik_Charging_Adjusted_Penalty>  (1) 
0

>  <r_epik_Ionization_Penalty>  (1) 
2.8523950136144186e-08

>  <r_epik_Ionization_Penalty_Charging>  (1) 
0

>  <r_epik_Ionization_Penalty_Neutral>  (1) 
2.8523950136144186e-08

>  <r_epik_State_Penalty>  (1) 
-0

>  <r_glide_ring_energy>  (1) 
0

>  <r_i_docking_score>  (1) 
-5.218788280826673

>  <r_i_glide_ecoul>  (1) 
-0.38477228109828321

>  <r_i_glide_eff_state_penalty>  (1) 
-0

>  <r_i_glide_einternal>  (1) 
16.885111547158786

>  <r_i_glide_emodel>  (1) 
-11.033499861673523

>  <r_i_glide_emodel_strain>  (1) 
5.724668657590712

>  <r_i_glide_energy>  (1) 
-19.390771130024397

>  <r_i_glide_erotb>  (1) 
0.46147465592596376

>  <r_i_glide_esite>  (1) 
-0.13338085563395241

>  <r_i_glide_evdw>  (1) 
-19.005998848926115

>  <r_i_glide_gscore>  (1) 
-5.218788280826673

>  <r_i_glide_gscore_strain>  (1) 
0.43116716439767799

>  <r_i_glide_hbond>  (1) 
-0.041029520170370641

>  <r_i_glide_ligand_efficiency>  (1) 
-0.16308713377583353

>  <r_i_glide_ligand_efficiency_ln>  (1) 
-1.1686289548727748

>  <r_i_glide_ligand_efficiency_sa>  (1) 
-0.51776937543647328

>  <r_i_glide_lipo>  (1) 
-3.2776689994532737

>  <r_i_glide_metal>  (1) 
-0

>  <r_i_glide_rewards>  (1) 
-1.6513349412816694

>  <r_lp_Energy>  (1) 
50.695834999999995

>  <r_lp_tautomer_probability>  (1) 
1

>  <s_epik_cmdline>  (1) 
J2VwaWtfcHl0aG9uJywgJy1waHQnLCAnMS4wJywgJy1waCcsICc3LjQnLCAnLXRuJywgJzgnLCAnLW1hJywgJzUwMCcsICctaW1hZScsICc8aW5maWxlLm1hZT4nLCAnLW9tYWUnLCAnPG91dGZpbGUubWFlPic=

>  <s_epik_input>  (1) 
RkMoRikoRilbQ0gyXVtDQEhdMVtDSF09W0NIXUMoPUMxMilTW0NASF0oW0NIXT1bQ0hdMilbQ0BIXShbQ0BIXShbQ0gzXSlbQ0BIXTNbQ0gzXSlbQ0gyXVtOSF1DKD1PKVtDQEhdM0M0KFtDSDJdW0NIMl1bQ0gyXTQpW0NIMl1bQ0gyXVtDSDJdW0NIM10=

>  <s_glide_docking_method>  (1) 
confgen

>  <s_i_glide_gridfile>  (1) 
gpcr_drd2_6luq_protein_autoprepared_prepared

>  <s_lp_Force_Field>  (1) 
S-OPLS

>  <s_lp_Variant>  (1) 
DiffSBDD_69-1

>  <s_m_source_file>  (1) 
generated_generic_title2_ligand_DiffSBDD_2026-06-23_prepared.sdf

>  <GenAI_Model>  (1) 
DiffSBDD

>  <Protein>  (1) 
generic_title2

$$$$
DiffSBDD_56
     RDKit          3D

  0  0  0  0  0  0  0  0  0  0999 V3000
M  V30 BEGIN CTAB
M  V30 COUNTS 88 91 0 0 1
M  V30 BEGIN ATOM
M  V30 1 C 8.581843 4.606920 -19.828275 0 CFG=1
M  V30 2 C 10.345574 4.967490 -16.258438 0
M  V30 3 C 12.772717 3.371295 -23.011596 0
M  V30 4 C 16.610492 0.138086 -20.893986 0
M  V30 5 C 10.369116 5.075243 -17.813801 0 CFG=1
M  V30 6 C 15.476381 -0.806122 -21.230982 0
M  V30 7 F 4.294073 6.074488 -17.170155 0
M  V30 8 C 7.088970 5.052227 -17.159098 0
M  V30 9 C 15.200714 5.797513 -19.447559 0 CFG=2
M  V30 10 O 8.101805 7.190178 -19.310079 0
M  V30 11 C 14.127745 5.954318 -21.786133 0
M  V30 12 F 17.375372 0.390225 -21.955310 0
M  V30 13 O 11.405021 5.591731 -15.585021 0
M  V30 14 C 12.801951 5.919100 -18.653416 0 CFG=2
M  V30 15 F 13.085875 -0.563082 -20.790225 0
M  V30 16 O 11.871784 3.838175 -19.374027 0
M  V30 17 C 16.138560 6.507461 -18.450390 0
M  V30 18 C 5.203487 6.561644 -18.007245 0
M  V30 19 S 7.358192 5.994295 -19.724274 0
M  V30 20 C 15.914146 1.397026 -20.357368 0 CFG=2
M  V30 21 N 14.563344 1.002796 -19.930627 0
M  V30 22 O 6.595979 6.024863 -20.980870 0
M  V30 23 F 17.370856 -0.397557 -19.937479 0
M  V30 24 C 13.368663 0.194001 -17.933247 0
M  V30 25 C 11.847818 4.732142 -18.276134 0 CFG=2
M  V30 26 C 8.012878 3.863232 -17.491777 0
M  V30 27 O 13.375429 8.257866 -18.240835 0
M  V30 28 C 15.772167 2.472339 -21.460605 0
M  V30 29 C 14.552544 0.007575 -18.862844 0 CFG=1
M  V30 30 O 14.080601 5.271667 -18.721196 0
M  V30 31 C 9.517591 4.841528 -21.029249 0
M  V30 32 C 9.204048 4.184377 -18.446652 0 CFG=1
M  V30 33 C 12.884927 7.079070 -17.637289 0
M  V30 34 F 5.775464 7.590292 -17.399822 0
M  V30 35 C 6.235191 5.469791 -18.358455 0 CFG=1
M  V30 36 O 10.279552 6.024758 -20.904171 0
M  V30 37 C 15.908262 4.536141 -19.970550 0
M  V30 38 N 14.795401 4.692284 -22.192178 0 CFG=1 CHG=1
M  V30 39 C 15.070071 3.785528 -21.032870 0 CFG=1
M  V30 40 C 14.368300 -0.395376 -20.300620 0 CFG=2
M  V30 41 C 14.894203 6.688105 -20.676468 0
M  V30 42 F 4.575623 6.990519 -19.099974 0
M  V30 43 C 14.097368 4.078112 -23.356400 0
M  V30 44 H 7.970915 3.757220 -20.134882 0
M  V30 45 H 10.409056 3.923722 -15.985181 0
M  V30 46 H 9.438478 5.363109 -15.811505 0
M  V30 47 H 12.310353 2.969901 -23.912059 0
M  V30 48 H 12.909061 2.536252 -22.324513 0
M  V30 49 H 12.054780 4.058984 -22.567153 0
M  V30 50 H 10.155598 6.109902 -18.077020 0
M  V30 51 H 15.740910 -1.855898 -21.100491 0
M  V30 52 H 15.142161 -0.659699 -22.258737 0
M  V30 53 H 6.451837 4.790247 -16.316056 0
M  V30 54 H 7.661114 5.917557 -16.829972 0
M  V30 55 H 13.106629 5.733944 -21.485373 0
M  V30 56 H 14.049168 6.620730 -22.646800 0
M  V30 57 H 11.645580 5.053436 -14.831878 0
M  V30 58 H 12.468159 6.328200 -19.599081 0
M  V30 59 H 11.699011 2.965769 -19.055161 0
M  V30 60 H 17.080637 6.786310 -18.922871 0
M  V30 61 H 15.712851 7.420825 -18.043329 0
M  V30 62 H 16.377283 5.860291 -17.605968 0
M  V30 63 H 16.480566 1.796688 -19.517279 0
M  V30 64 H 13.155800 -0.740563 -17.414567 0
M  V30 65 H 13.591442 0.957371 -17.187227 0
M  V30 66 H 12.473785 0.494548 -18.480257 0
M  V30 67 H 12.337058 4.166119 -17.480958 0
M  V30 68 H 7.404572 3.078532 -17.943487 0
M  V30 69 H 8.355208 3.398038 -16.568727 0
M  V30 70 H 12.828923 8.999690 -17.984954 0
M  V30 71 H 15.240334 1.995811 -22.281847 0
M  V30 72 H 16.757823 2.725558 -21.852828 0
M  V30 73 H 15.490915 -0.243951 -18.373511 0
M  V30 74 H 10.163898 3.982776 -21.195101 0
M  V30 75 H 8.920290 4.935902 -21.936923 0
M  V30 76 H 9.638240 3.198126 -18.607483 0
M  V30 77 H 11.892939 7.336244 -17.284922 0
M  V30 78 H 13.485403 6.816322 -16.765813 0
M  V30 79 H 5.687475 4.605579 -18.733613 0
M  V30 80 H 9.700258 6.732668 -20.652412 0
M  V30 81 H 16.877640 4.802616 -20.394019 0
M  V30 82 H 16.117851 3.887078 -19.121609 0
M  V30 83 H 14.110232 3.527282 -20.589746 0
M  V30 84 H 14.355544 7.591972 -20.404874 0
M  V30 85 H 15.837603 7.043401 -21.093619 0
M  V30 86 H 13.888403 4.870963 -24.071033 0
M  V30 87 H 14.767191 3.395117 -23.878292 0
M  V30 88 H 15.701178 4.972616 -22.540167 0
M  V30 END ATOM
M  V30 BEGIN BOND
M  V30 1 1 5 2
M  V30 2 1 6 4
M  V30 3 1 12 4
M  V30 4 1 13 2
M  V30 5 1 17 9
M  V30 6 1 18 7
M  V30 7 1 19 1
M  V30 8 2 19 10
M  V30 9 1 20 4
M  V30 10 1 21 20
M  V30 11 2 22 19
M  V30 12 1 23 4
M  V30 13 1 25 5
M  V30 14 1 25 14
M  V30 15 1 25 16
M  V30 16 1 26 8
M  V30 17 1 28 20
M  V30 18 1 29 21
M  V30 19 1 29 24
M  V30 20 1 9 30 CFG=1
M  V30 21 1 30 14
M  V30 22 1 31 1
M  V30 23 1 32 1
M  V30 24 1 32 5
M  V30 25 1 32 26
M  V30 26 1 33 14
M  V30 27 1 33 27
M  V30 28 1 34 18
M  V30 29 1 35 8
M  V30 30 1 35 18
M  V30 31 1 35 19
M  V30 32 1 36 31
M  V30 33 1 37 9
M  V30 34 1 38 11
M  V30 35 1 39 28
M  V30 36 1 39 37
M  V30 37 1 39 38
M  V30 38 1 40 6
M  V30 39 1 40 15 CFG=1
M  V30 40 1 40 21
M  V30 41 1 40 29
M  V30 42 1 41 9
M  V30 43 1 41 11
M  V30 44 1 42 18
M  V30 45 1 43 3
M  V30 46 1 43 38
M  V30 47 1 1 44 CFG=3
M  V30 48 1 45 2
M  V30 49 1 46 2
M  V30 50 1 47 3
M  V30 51 1 48 3
M  V30 52 1 49 3
M  V30 53 1 5 50 CFG=1
M  V30 54 1 51 6
M  V30 55 1 52 6
M  V30 56 1 53 8
M  V30 57 1 54 8
M  V30 58 1 55 11
M  V30 59 1 56 11
M  V30 60 1 57 13
M  V30 61 1 14 58 CFG=3
M  V30 62 1 59 16
M  V30 63 1 60 17
M  V30 64 1 61 17
M  V30 65 1 62 17
M  V30 66 1 20 63 CFG=1
M  V30 67 1 64 24
M  V30 68 1 65 24
M  V30 69 1 66 24
M  V30 70 1 25 67 CFG=1
M  V30 71 1 68 26
M  V30 72 1 69 26
M  V30 73 1 70 27
M  V30 74 1 71 28
M  V30 75 1 72 28
M  V30 76 1 29 73 CFG=1
M  V30 77 1 74 31
M  V30 78 1 75 31
M  V30 79 1 32 76 CFG=3
M  V30 80 1 77 33
M  V30 81 1 78 33
M  V30 82 1 35 79 CFG=3
M  V30 83 1 80 36
M  V30 84 1 81 37
M  V30 85 1 82 37
M  V30 86 1 39 83 CFG=1
M  V30 87 1 84 41
M  V30 88 1 85 41
M  V30 89 1 86 43
M  V30 90 1 87 43
M  V30 91 1 38 88 CFG=3
M  V30 END BOND
M  V30 END CTAB
M  END
>  <i_epik_Tot_Q>  (1) 
1

>  <i_epik_Tot_abs_Q>  (1) 
1

>  <i_i_glide_confnum>  (1) 
44

>  <i_i_glide_lignum>  (1) 
90

>  <i_i_glide_posenum>  (1) 
289

>  <i_i_glide_rotatable_bonds>  (1) 
16

>  <i_lp_mmshare_version>  (1) 
72125

>  <i_m_source_file_index>  (1) 
57

>  <i_f3d_flags>  (1) 
0

>  <num_sample>  (1) 
100

>  <b_lp_Chiralities_Consistent>  (1) 
1

>  <r_epik_Charging_Adjusted_Penalty>  (1) 
0.01878207797614901

>  <r_epik_Ionization_Penalty>  (1) 
0.019451196131951093

>  <r_epik_Ionization_Penalty_Charging>  (1) 
0.01878207797614901

>  <r_epik_Ionization_Penalty_Neutral>  (1) 
0.0006691181558020811

>  <r_epik_State_Penalty>  (1) 
-0

>  <r_glide_ring_energy>  (1) 
0

>  <r_i_docking_score>  (1) 
-5.214270616419995

>  <r_i_glide_ecoul>  (1) 
-11.524904800786842

>  <r_i_glide_eff_state_penalty>  (1) 
-0

>  <r_i_glide_einternal>  (1) 
15.667497105941194

>  <r_i_glide_emodel>  (1) 
-25.676002860311158

>  <r_i_glide_emodel_strain>  (1) 
2.3227435136839745

>  <r_i_glide_energy>  (1) 
-27.850116593801665

>  <r_i_glide_erotb>  (1) 
0.34042408851888512

>  <r_i_glide_esite>  (1) 
0

>  <r_i_glide_evdw>  (1) 
-16.325211793014823

>  <r_i_glide_gscore>  (1) 
-5.214270616419995

>  <r_i_glide_gscore_strain>  (1) 
0

>  <r_i_glide_hbond>  (1) 
-0.60799999999999998

>  <r_i_glide_ligand_efficiency>  (1) 
-0.12126210735860453

>  <r_i_glide_ligand_efficiency_ln>  (1) 
-1.0951588863557848

>  <r_i_glide_ligand_efficiency_sa>  (1) 
-0.42482943171854193

>  <r_i_glide_lipo>  (1) 
-1.4609597028102317

>  <r_i_glide_metal>  (1) 
-0

>  <r_i_glide_rewards>  (1) 
-0.94073869235988128

>  <r_lp_Energy>  (1) 
36.609592999999997

>  <r_lp_tautomer_probability>  (1) 
1

>  <s_epik_cmdline>  (1) 
J2VwaWtfcHl0aG9uJywgJy1waHQnLCAnMS4wJywgJy1waCcsICc3LjQnLCAnLXRuJywgJzgnLCAnLW1hJywgJzUwMCcsICctaW1hZScsICc8aW5maWxlLm1hZT4nLCAnLW9tYWUnLCAnPG91dGZpbGUubWFlPic=

>  <s_epik_input>  (1) 
RkMoRikoRilbQ0BASF0xW0NIMl1bQ0gyXVtDQEBIXShbQ0BASF0oUzEoPU8pPU8pW0NIMl1bT0hdKVtDQEBIXShbQ0gyXVtPSF0pW0NAQEhdKFtPSF0pW0NAQEhdKFtDSDJdW09IXSlPW0NAQF0yKFtDSDNdKVtDSDJdW0NAQEhdKE4oW0NIMl1bQ0gyXTIpW0NIMl1bQ0gzXSlbQ0gyXVtDQEhdKEMoRikoRilbQ0gyXTMpTihbQ0BAXTM0RilbQ0BIXTRbQ0gzXQ==

>  <s_glide_docking_method>  (1) 
confgen

>  <s_i_glide_gridfile>  (1) 
gpcr_drd2_6luq_protein_autoprepared_prepared

>  <s_lp_Force_Field>  (1) 
S-OPLS

>  <s_lp_Variant>  (1) 
DiffSBDD_56-2

>  <s_m_source_file>  (1) 
generated_generic_title2_ligand_DiffSBDD_2026-06-23_prepared.sdf

>  <GenAI_Model>  (1) 
DiffSBDD

>  <Protein>  (1) 
generic_title2

$$$$
DiffSBDD_22
     RDKit          3D

  0  0  0  0  0  0  0  0  0  0999 V3000
M  V30 BEGIN CTAB
M  V30 COUNTS 28 29 0 0 1
M  V30 BEGIN ATOM
M  V30 1 C 9.723214 7.230450 -8.043957 0 CFG=1
M  V30 2 N 8.974914 5.990277 -8.107474 0
M  V30 3 C 8.164506 4.790227 -10.058940 0
M  V30 4 C 12.175441 7.571114 -2.370928 0
M  V30 5 C 10.763176 7.550465 -7.001957 0 CFG=2
M  V30 6 C 11.775413 6.700731 -3.350598 0
M  V30 7 C 9.379258 5.090170 -9.175764 0
M  V30 8 C 11.114552 6.620562 -5.858459 0
M  V30 9 C 11.543502 7.344431 -4.612313 0
M  V30 10 O 9.775402 7.877309 -9.300004 0
M  V30 11 C 9.399094 8.214980 -6.957252 0
M  V30 12 S 12.243573 9.190190 -2.955868 0
M  V30 13 C 11.775432 8.703707 -4.543797 0
M  V30 14 H 7.991943 6.226901 -8.225517 0
M  V30 15 H 8.421752 4.072461 -10.838052 0
M  V30 16 H 7.341921 4.375109 -9.476582 0
M  V30 17 H 7.799529 5.694405 -10.547963 0
M  V30 18 H 12.426569 7.354832 -1.347155 0
M  V30 19 H 11.596770 8.155121 -7.355051 0
M  V30 20 H 11.651569 5.636397 -3.215339 0
M  V30 21 H 10.175321 5.514958 -9.782672 0
M  V30 22 H 9.775421 4.173727 -8.738734 0
M  V30 23 H 10.252674 5.990826 -5.636173 0
M  V30 24 H 11.902175 5.946683 -6.195559 0
M  V30 25 H 8.869371 7.990018 -9.585025 0
M  V30 26 H 9.366193 9.271892 -7.187486 0
M  V30 27 H 8.697086 7.894763 -6.190811 0
M  V30 28 H 11.688318 9.438593 -5.330440 0
M  V30 END ATOM
M  V30 BEGIN BOND
M  V30 1 1 2 1
M  V30 2 1 5 1
M  V30 3 2 6 4
M  V30 4 1 7 2
M  V30 5 1 7 3
M  V30 6 1 8 5
M  V30 7 1 9 6
M  V30 8 1 9 8
M  V30 9 1 1 10 CFG=3
M  V30 10 1 11 1
M  V30 11 1 11 5
M  V30 12 1 12 4
M  V30 13 2 13 9
M  V30 14 1 13 12
M  V30 15 1 14 2
M  V30 16 1 15 3
M  V30 17 1 16 3
M  V30 18 1 17 3
M  V30 19 1 18 4
M  V30 20 1 5 19 CFG=3
M  V30 21 1 20 6
M  V30 22 1 21 7
M  V30 23 1 22 7
M  V30 24 1 23 8
M  V30 25 1 24 8
M  V30 26 1 25 10
M  V30 27 1 26 11
M  V30 28 1 27 11
M  V30 29 1 28 13
M  V30 END BOND
M  V30 END CTAB
M  END
>  <i_epik_Tot_Q>  (1) 
0

>  <i_epik_Tot_abs_Q>  (1) 
0

>  <i_i_glide_confnum>  (1) 
8

>  <i_i_glide_lignum>  (1) 
39

>  <i_i_glide_posenum>  (1) 
288

>  <i_i_glide_rotatable_bonds>  (1) 
5

>  <i_lp_mmshare_version>  (1) 
72125

>  <i_m_source_file_index>  (1) 
23

>  <i_f3d_flags>  (1) 
0

>  <num_sample>  (1) 
100

>  <b_lp_Chiralities_Consistent>  (1) 
1

>  <r_epik_Charging_Adjusted_Penalty>  (1) 
0.22588015367331185

>  <r_epik_Ionization_Penalty>  (1) 
0.22588404023765496

>  <r_epik_Ionization_Penalty_Charging>  (1) 
0

>  <r_epik_Ionization_Penalty_Neutral>  (1) 
0.22588404023765496

>  <r_epik_State_Penalty>  (1) 
0.22588015367331185

>  <r_glide_ring_energy>  (1) 
0

>  <r_i_docking_score>  (1) 
-5.2092665432587895

>  <r_i_glide_ecoul>  (1) 
-5.6052599668707366

>  <r_i_glide_eff_state_penalty>  (1) 
0.22588015367331185

>  <r_i_glide_einternal>  (1) 
7.2354341020901298

>  <r_i_glide_emodel>  (1) 
-35.890346596020478

>  <r_i_glide_emodel_strain>  (1) 
2.0392887562855257

>  <r_i_glide_energy>  (1) 
-30.503401015846663

>  <r_i_glide_erotb>  (1) 
1.2530290316507966

>  <r_i_glide_esite>  (1) 
-0.079376586526996973

>  <r_i_glide_evdw>  (1) 
-24.898141048975926

>  <r_i_glide_gscore>  (1) 
-5.435146696932101

>  <r_i_glide_gscore_strain>  (1) 
0

>  <r_i_glide_hbond>  (1) 
-0.28332841815141807

>  <r_i_glide_ligand_efficiency>  (1) 
-0.40071281101990686

>  <r_i_glide_ligand_efficiency_ln>  (1) 
-1.4612455945147305

>  <r_i_glide_ligand_efficiency_sa>  (1) 
-0.94220993236519979

>  <r_i_glide_lipo>  (1) 
-1.7886512026384909

>  <r_i_glide_metal>  (1) 
-0

>  <r_i_glide_rewards>  (1) 
-2.4511234737865846

>  <r_lp_Energy>  (1) 
-2.963994

>  <s_epik_cmdline>  (1) 
J2VwaWtfcHl0aG9uJywgJy1waHQnLCAnMS4wJywgJy1waCcsICc3LjQnLCAnLXRuJywgJzgnLCAnLW1hJywgJzUwMCcsICctaW1hZScsICc8aW5maWxlLm1hZT4nLCAnLW9tYWUnLCAnPG91dGZpbGUubWFlPic=

>  <s_epik_input>  (1) 
W0NIM11bQ0gyXVtOSF1bQ0BdMShbT0hdKVtDQEBIXShbQ0gyXTEpW0NIMl1jMltjSF1bY0hdc1tjSF0y

>  <s_glide_docking_method>  (1) 
confgen

>  <s_i_glide_gridfile>  (1) 
gpcr_drd2_6luq_protein_autoprepared_prepared

>  <s_lp_Force_Field>  (1) 
S-OPLS

>  <s_lp_Variant>  (1) 
DiffSBDD_22-1

>  <s_m_source_file>  (1) 
generated_generic_title2_ligand_DiffSBDD_2026-06-23_prepared.sdf

>  <GenAI_Model>  (1) 
DiffSBDD

>  <Protein>  (1) 
generic_title2

$$$$
DiffSBDD_51
     RDKit          3D

  0  0  0  0  0  0  0  0  0  0999 V3000
M  V30 BEGIN CTAB
M  V30 COUNTS 67 70 0 0 1
M  V30 BEGIN ATOM
M  V30 1 C 11.152622 6.403570 -3.886777 0
M  V30 2 C 9.375453 7.073052 -9.252048 0
M  V30 3 C 11.017200 6.777987 -6.387045 0
M  V30 4 C 10.877728 7.033861 -8.918375 0 CFG=1
M  V30 5 C 10.965396 5.097610 -17.011760 0
M  V30 6 N 12.677356 5.054973 -18.746949 0
M  V30 7 C 7.365454 6.170841 -13.179710 0
M  V30 8 N 8.977480 6.616684 -10.592904 0
M  V30 9 C 7.897613 2.901933 -16.470283 0
M  V30 10 C 11.271759 7.298580 -5.100744 0
M  V30 11 C 9.147364 3.465419 -17.059072 0
M  V30 12 C 10.872376 3.427067 -18.790435 0
M  V30 13 C 9.693553 2.896081 -18.230690 0
M  V30 14 C 8.404809 5.268330 -10.659973 0 CFG=1
M  V30 15 C 6.312379 4.088613 -10.394362 0
M  V30 16 N 8.410466 4.267582 -14.372978 0
M  V30 17 C 11.773542 7.666573 -10.008566 0
M  V30 18 C 8.864949 7.543001 -11.634004 0
M  V30 19 C 7.399692 3.483040 -15.118824 0 CFG=2
M  V30 20 C 9.787443 4.567550 -16.448613 0
M  V30 21 C 11.524770 8.954595 -7.363065 0
M  V30 22 O 7.264729 2.016097 -17.047535 0
M  V30 23 C 9.207574 5.190146 -15.199394 0
M  V30 24 C 13.363527 6.108008 -18.261164 0
M  V30 25 N 13.913154 7.024856 -17.817357 0
M  V30 26 O 7.017327 5.303623 -10.504968 0
M  V30 27 N 7.938666 4.818774 -13.129567 0
M  V30 28 C 11.644039 8.650976 -4.947410 0
M  V30 29 C 6.837795 2.345715 -14.233636 0
M  V30 30 C 11.145767 7.604458 -7.522467 0
M  V30 31 C 8.175344 7.392588 -12.785145 0
M  V30 32 C 11.769878 9.476413 -6.077548 0
M  V30 33 C 8.821020 4.574366 -11.982338 0
M  V30 34 C 11.509724 4.528822 -18.183798 0
M  V30 35 H 11.375428 6.941595 -2.964995 0
M  V30 36 H 11.866698 5.590219 -3.967631 0
M  V30 37 H 10.148011 5.990215 -3.814648 0
M  V30 38 H 9.028996 8.101366 -9.135073 0
M  V30 39 H 8.822332 6.503160 -8.503250 0
M  V30 40 H 10.729749 5.743194 -6.502597 0
M  V30 41 H 11.134892 5.990263 -8.828322 0
M  V30 42 H 11.450127 5.942528 -16.544259 0
M  V30 43 H 13.009667 4.606105 -19.587884 0
M  V30 44 H 6.951817 6.342680 -14.172469 0
M  V30 45 H 6.472353 6.186373 -12.557920 0
M  V30 46 H 11.286504 2.988708 -19.687207 0
M  V30 47 H 9.208580 2.052433 -18.700252 0
M  V30 48 H 8.819097 4.709535 -9.819299 0
M  V30 49 H 5.244868 4.301833 -10.384277 0
M  V30 50 H 6.575397 3.590193 -9.466226 0
M  V30 51 H 6.486038 3.441399 -11.248697 0
M  V30 52 H 12.826623 7.610839 -9.732857 0
M  V30 53 H 11.527164 8.713153 -10.182296 0
M  V30 54 H 11.661375 7.169563 -10.970464 0
M  V30 55 H 9.384121 8.466166 -11.428067 0
M  V30 56 H 6.576963 4.157522 -15.358611 0
M  V30 57 H 11.625961 9.591280 -8.224795 0
M  V30 58 H 8.588576 6.019555 -15.531603 0
M  V30 59 H 10.020845 5.590056 -14.591451 0
M  V30 60 H 11.837214 9.051874 -3.963493 0
M  V30 61 H 6.183765 1.665974 -14.781008 0
M  V30 62 H 6.239979 2.743762 -13.415399 0
M  V30 63 H 7.642026 1.750139 -13.800487 0
M  V30 64 H 8.165022 8.205092 -13.491233 0
M  V30 65 H 12.056773 10.510328 -5.960429 0
M  V30 66 H 9.840063 4.876268 -12.226307 0
M  V30 67 H 8.848075 3.498017 -11.807243 0
M  V30 END ATOM
M  V30 BEGIN BOND
M  V30 1 1 4 2
M  V30 2 1 8 2
M  V30 3 1 10 1
M  V30 4 2 10 3
M  V30 5 1 11 9
M  V30 6 1 13 11
M  V30 7 2 13 12
M  V30 8 1 14 8
M  V30 9 1 17 4
M  V30 10 1 18 8
M  V30 11 1 19 9
M  V30 12 1 19 16
M  V30 13 1 20 5
M  V30 14 2 20 11
M  V30 15 2 22 9
M  V30 16 1 23 16
M  V30 17 1 23 20
M  V30 18 1 24 6
M  V30 19 3 25 24
M  V30 20 1 26 14
M  V30 21 1 26 15
M  V30 22 1 27 7
M  V30 23 1 27 16
M  V30 24 1 28 10
M  V30 25 1 29 19
M  V30 26 1 30 3
M  V30 27 1 30 4
M  V30 28 2 30 21
M  V30 29 1 31 7
M  V30 30 2 31 18
M  V30 31 1 32 21
M  V30 32 2 32 28
M  V30 33 1 33 14
M  V30 34 1 33 27
M  V30 35 2 34 5
M  V30 36 1 34 6
M  V30 37 1 34 12
M  V30 38 1 35 1
M  V30 39 1 36 1
M  V30 40 1 37 1
M  V30 41 1 38 2
M  V30 42 1 39 2
M  V30 43 1 40 3
M  V30 44 1 4 41 CFG=1
M  V30 45 1 42 5
M  V30 46 1 43 6
M  V30 47 1 44 7
M  V30 48 1 45 7
M  V30 49 1 46 12
M  V30 50 1 47 13
M  V30 51 1 14 48 CFG=1
M  V30 52 1 49 15
M  V30 53 1 50 15
M  V30 54 1 51 15
M  V30 55 1 52 17
M  V30 56 1 53 17
M  V30 57 1 54 17
M  V30 58 1 55 18
M  V30 59 1 19 56 CFG=3
M  V30 60 1 57 21
M  V30 61 1 58 23
M  V30 62 1 59 23
M  V30 63 1 60 28
M  V30 64 1 61 29
M  V30 65 1 62 29
M  V30 66 1 63 29
M  V30 67 1 64 31
M  V30 68 1 65 32
M  V30 69 1 66 33
M  V30 70 1 67 33
M  V30 END BOND
M  V30 END CTAB
M  END
>  <i_epik_Tot_Q>  (1) 
0

>  <i_epik_Tot_abs_Q>  (1) 
0

>  <i_i_glide_confnum>  (1) 
73

>  <i_i_glide_lignum>  (1) 
80

>  <i_i_glide_posenum>  (1) 
130

>  <i_i_glide_rotatable_bonds>  (1) 
6

>  <i_lp_mmshare_version>  (1) 
72125

>  <i_m_source_file_index>  (1) 
52

>  <i_f3d_flags>  (1) 
0

>  <num_sample>  (1) 
100

>  <b_lp_Chiralities_Consistent>  (1) 
1

>  <r_epik_Charging_Adjusted_Penalty>  (1) 
7.4502254237452924e-08

>  <r_epik_Ionization_Penalty>  (1) 
0.00022335133816854321

>  <r_epik_Ionization_Penalty_Charging>  (1) 
7.4502254237452924e-08

>  <r_epik_Ionization_Penalty_Neutral>  (1) 
0.00022327683591430577

>  <r_epik_State_Penalty>  (1) 
-0

>  <r_glide_ring_energy>  (1) 
0

>  <r_i_docking_score>  (1) 
-5.2078496357158812

>  <r_i_glide_ecoul>  (1) 
1.0706923385675153

>  <r_i_glide_eff_state_penalty>  (1) 
-0

>  <r_i_glide_einternal>  (1) 
6.9384308664883738

>  <r_i_glide_emodel>  (1) 
-41.506718854098068

>  <r_i_glide_emodel_strain>  (1) 
1.3450085836663135

>  <r_i_glide_energy>  (1) 
-34.620740054273092

>  <r_i_glide_erotb>  (1) 
0.47630443723403276

>  <r_i_glide_esite>  (1) 
-0.14668642439544197

>  <r_i_glide_evdw>  (1) 
-35.691432392840611

>  <r_i_glide_gscore>  (1) 
-5.2078496357158812

>  <r_i_glide_gscore_strain>  (1) 
0

>  <r_i_glide_hbond>  (1) 
0

>  <r_i_glide_ligand_efficiency>  (1) 
-0.15317204810929064

>  <r_i_glide_ligand_efficiency_ln>  (1) 
-1.150560059764022

>  <r_i_glide_ligand_efficiency_sa>  (1) 
-0.49621797468070039

>  <r_i_glide_lipo>  (1) 
-2.6225966323235554

>  <r_i_glide_metal>  (1) 
-0

>  <r_i_glide_rewards>  (1) 
-1.290903247374013

>  <r_lp_Energy>  (1) 
38.248024999999998

>  <r_lp_tautomer_probability>  (1) 
1

>  <s_epik_Chemistry_Notes>  (1) 
This compound has an imine and may undergo hydrolysis. This compound contains an acetal/aminal-like group ( X-CH(R)-Y where X, Y are N, S, or O) that may be acid/base labile, releasing an aldehyde.

>  <s_epik_cmdline>  (1) 
J2VwaWtfcHl0aG9uJywgJy1waHQnLCAnMS4wJywgJy1waCcsICc3LjQnLCAnLXRuJywgJzgnLCAnLW1hJywgJzUwMCcsICctaW1hZScsICc8aW5maWxlLm1hZT4nLCAnLW9tYWUnLCAnPG91dGZpbGUubWFlPic=

>  <s_epik_input>  (1) 
W0NIM11jMVtjSF1jKFtjSF1bY0hdW2NIXTEpW0NASF0oW0NIM10pW0NIMl1OMltDQEBIXShPW0NIM10pW0NIMl1OKFtDSDJdW0NIXT1bQ0hdMilOKFtDQEBIXShDMz1PKVtDSDNdKVtDSDJdYyhjMzQpW2NIXWMoW05IXUMjTilbY0hdW2NIXTQ=

>  <s_glide_docking_method>  (1) 
confgen

>  <s_i_glide_gridfile>  (1) 
gpcr_drd2_6luq_protein_autoprepared_prepared

>  <s_lp_Force_Field>  (1) 
S-OPLS

>  <s_lp_Variant>  (1) 
DiffSBDD_51-1

>  <s_m_source_file>  (1) 
generated_generic_title2_ligand_DiffSBDD_2026-06-23_prepared.sdf

>  <GenAI_Model>  (1) 
DiffSBDD

>  <Protein>  (1) 
generic_title2

$$$$
DiffSBDD_88
     RDKit          3D

  0  0  0  0  0  0  0  0  0  0999 V3000
M  V30 BEGIN CTAB
M  V30 COUNTS 37 38 0 0 1
M  V30 BEGIN ATOM
M  V30 1 C 7.030445 5.311980 -11.391537 0 CFG=1
M  V30 2 F 5.292416 3.990552 -12.318054 0
M  V30 3 C 10.652573 7.524881 -9.159682 0
M  V30 4 C 11.304833 8.217977 -7.963752 0
M  V30 5 O 8.338401 4.790451 -8.683307 0
M  V30 6 O 10.975156 8.070340 -5.572168 0
M  V30 7 O 6.286113 6.493909 -11.585091 0
M  V30 8 C 10.305672 8.038410 -6.815345 0 CFG=2
M  V30 9 C 8.973859 5.834162 -12.989929 0
M  V30 10 N 9.756944 6.551167 -8.532509 0
M  V30 11 C 6.590807 4.235329 -12.413517 0 CFG=1
M  V30 12 F 8.898503 4.965989 -15.186344 0
M  V30 13 C 8.504196 4.722732 -13.936125 0 CFG=2
M  V30 14 C 9.093810 5.592318 -9.232553 0
M  V30 15 C 6.180818 5.629768 -14.560841 0
M  V30 16 N 9.375504 5.639915 -10.592370 0
M  V30 17 C 8.534626 5.594181 -11.555623 0
M  V30 18 C 9.616993 6.693869 -7.091183 0
M  V30 19 C 6.984495 4.499716 -13.882844 0 CFG=2
M  V30 20 H 6.761004 4.938735 -10.408626 0
M  V30 21 H 11.407634 7.067494 -9.800342 0
M  V30 22 H 10.066841 8.232131 -9.749204 0
M  V30 23 H 11.547088 9.260426 -8.163788 0
M  V30 24 H 12.238021 7.703447 -7.727766 0
M  V30 25 H 11.385265 8.916067 -5.478362 0
M  V30 26 H 6.503901 7.083668 -10.859053 0
M  V30 27 H 9.561098 8.835982 -6.852617 0
M  V30 28 H 8.574504 6.796052 -13.309713 0
M  V30 29 H 10.060380 5.917931 -13.030592 0
M  V30 30 H 7.055012 3.294797 -12.114110 0
M  V30 31 H 9.004745 3.804532 -13.638145 0
M  V30 32 H 6.414018 6.613819 -14.157829 0
M  V30 33 H 6.384558 5.663277 -15.631047 0
M  V30 34 H 5.108468 5.474961 -14.439162 0
M  V30 35 H 10.139569 5.867916 -6.606190 0
M  V30 36 H 8.575141 6.694003 -6.762406 0
M  V30 37 H 6.765283 3.590741 -14.444688 0
M  V30 END ATOM
M  V30 BEGIN BOND
M  V30 1 1 4 3
M  V30 2 1 7 1
M  V30 3 1 8 4
M  V30 4 1 8 6
M  V30 5 1 10 3
M  V30 6 1 11 1
M  V30 7 1 11 2
M  V30 8 1 13 9
M  V30 9 1 13 12
M  V30 10 2 14 5
M  V30 11 1 14 10
M  V30 12 1 16 14
M  V30 13 1 17 1
M  V30 14 1 17 9
M  V30 15 2 17 16
M  V30 16 1 18 8
M  V30 17 1 18 10
M  V30 18 1 19 11
M  V30 19 1 19 13
M  V30 20 1 19 15
M  V30 21 1 1 20 CFG=1
M  V30 22 1 21 3
M  V30 23 1 22 3
M  V30 24 1 23 4
M  V30 25 1 24 4
M  V30 26 1 25 6
M  V30 27 1 26 7
M  V30 28 1 8 27 CFG=1
M  V30 29 1 28 9
M  V30 30 1 29 9
M  V30 31 1 11 30 CFG=1
M  V30 32 1 13 31 CFG=1
M  V30 33 1 32 15
M  V30 34 1 33 15
M  V30 35 1 34 15
M  V30 36 1 35 18
M  V30 37 1 36 18
M  V30 38 1 19 37 CFG=3
M  V30 END BOND
M  V30 END CTAB
M  END
>  <i_epik_Tot_Q>  (1) 
0

>  <i_epik_Tot_abs_Q>  (1) 
0

>  <i_i_glide_confnum>  (1) 
12

>  <i_i_glide_lignum>  (1) 
160

>  <i_i_glide_posenum>  (1) 
170

>  <i_i_glide_rotatable_bonds>  (1) 
4

>  <i_lp_mmshare_version>  (1) 
72125

>  <i_m_source_file_index>  (1) 
89

>  <i_f3d_flags>  (1) 
0

>  <num_sample>  (1) 
100

>  <b_lp_Chiralities_Consistent>  (1) 
1

>  <r_epik_Charging_Adjusted_Penalty>  (1) 
0.16120785643113181

>  <r_epik_Ionization_Penalty>  (1) 
0.1612079103687071

>  <r_epik_Ionization_Penalty_Charging>  (1) 
0

>  <r_epik_Ionization_Penalty_Neutral>  (1) 
0.1612079103687071

>  <r_epik_State_Penalty>  (1) 
0.16120785643113181

>  <r_glide_ring_energy>  (1) 
0.40670562658453302

>  <r_i_docking_score>  (1) 
-5.2031759133100159

>  <r_i_glide_ecoul>  (1) 
-5.4119933882294413

>  <r_i_glide_eff_state_penalty>  (1) 
0.16120785643113181

>  <r_i_glide_einternal>  (1) 
1.6344235049906075

>  <r_i_glide_emodel>  (1) 
-44.759786783786204

>  <r_i_glide_emodel_strain>  (1) 
0.97399332156985707

>  <r_i_glide_energy>  (1) 
-36.831813644273417

>  <r_i_glide_erotb>  (1) 
0.47132455663783185

>  <r_i_glide_esite>  (1) 
-0.16448153849313052

>  <r_i_glide_evdw>  (1) 
-31.419820256043973

>  <r_i_glide_gscore>  (1) 
-5.3643837697411474

>  <r_i_glide_gscore_strain>  (1) 
0

>  <r_i_glide_hbond>  (1) 
-0.16

>  <r_i_glide_ligand_efficiency>  (1) 
-0.2738513638584219

>  <r_i_glide_ligand_efficiency_ln>  (1) 
-1.3191168479958533

>  <r_i_glide_ligand_efficiency_sa>  (1) 
-0.73074543082456633

>  <r_i_glide_lipo>  (1) 
-0.95466672743113001

>  <r_i_glide_metal>  (1) 
-0

>  <r_i_glide_rewards>  (1) 
-2.1737700394181041

>  <r_lp_Energy>  (1) 
17.035233999999999

>  <s_epik_Chemistry_Notes>  (1) 
This compound has an imine and may undergo hydrolysis.

>  <s_epik_cmdline>  (1) 
J2VwaWtfcHl0aG9uJywgJy1waHQnLCAnMS4wJywgJy1waCcsICc3LjQnLCAnLXRuJywgJzgnLCAnLW1hJywgJzUwMCcsICctaW1hZScsICc8aW5maWxlLm1hZT4nLCAnLW9tYWUnLCAnPG91dGZpbGUubWFlPic=

>  <s_epik_input>  (1) 
W09IXVtDQEhdMVtDQEBIXShGKVtDQEBIXShbQ0gzXSlbQ0BASF0oRilbQ0gyXUNcMT1OXEMoPU8pTihbQ0gyXTIpW0NIMl1bQ0gyXVtDQEBIXTJbT0hd

>  <s_glide_docking_method>  (1) 
confgen

>  <s_i_glide_gridfile>  (1) 
gpcr_drd2_6luq_protein_autoprepared_prepared

>  <s_lp_Force_Field>  (1) 
S-OPLS

>  <s_lp_Variant>  (1) 
DiffSBDD_88-1

>  <s_m_source_file>  (1) 
generated_generic_title2_ligand_DiffSBDD_2026-06-23_prepared.sdf

>  <GenAI_Model>  (1) 
DiffSBDD

>  <Protein>  (1) 
generic_title2

$$$$
DiffSBDD_56
     RDKit          3D

  0  0  0  0  0  0  0  0  0  0999 V3000
M  V30 BEGIN CTAB
M  V30 COUNTS 88 91 0 0 1
M  V30 BEGIN ATOM
M  V30 1 C 8.235269 4.378008 -20.023753 0 CFG=1
M  V30 2 C 10.253410 4.389422 -16.544245 0
M  V30 3 C 12.632993 1.945289 -22.668013 0
M  V30 4 C 17.252741 0.436892 -20.346079 0
M  V30 5 C 10.096873 4.623635 -18.070427 0 CFG=1
M  V30 6 C 16.482298 -0.808650 -20.728130 0
M  V30 7 F 4.314388 6.390197 -17.183652 0
M  V30 8 C 6.975395 4.951796 -17.263483 0
M  V30 9 C 14.580115 5.762583 -20.283977 0 CFG=2
M  V30 10 O 8.253739 6.992614 -19.347214 0
M  V30 11 C 13.379282 5.070195 -22.434722 0
M  V30 12 F 18.174000 0.790248 -21.242512 0
M  V30 13 O 11.270646 5.190267 -15.985010 0
M  V30 14 C 12.276871 5.598962 -19.278647 0 CFG=2
M  V30 15 F 14.075307 -1.215661 -20.693367 0
M  V30 16 O 11.511459 3.346733 -19.673122 0
M  V30 17 C 15.339082 6.894445 -19.564656 0
M  V30 18 C 5.339669 6.790225 -17.933067 0
M  V30 19 S 7.300900 5.970245 -19.794852 0
M  V30 20 C 16.155456 1.493441 -20.168428 0 CFG=2
M  V30 21 N 14.903669 0.782221 -19.871821 0
M  V30 22 O 6.510884 6.213435 -21.011370 0
M  V30 23 F 17.867443 0.228149 -19.185085 0
M  V30 24 C 13.576463 -0.026048 -17.995894 0
M  V30 25 C 11.527179 4.365572 -18.694314 0 CFG=2
M  V30 26 C 7.678912 3.644887 -17.688337 0
M  V30 27 O 12.241363 7.990228 -19.211756 0
M  V30 28 C 15.898773 2.286033 -21.470597 0
M  V30 29 C 14.932902 -0.040882 -18.672000 0 CFG=1
M  V30 30 O 13.629607 5.147056 -19.403598 0
M  V30 31 C 9.183299 4.487161 -21.232262 0
M  V30 32 C 8.858382 3.839922 -18.686034 0 CFG=1
M  V30 33 C 12.292745 6.855145 -18.386729 0
M  V30 34 F 6.090364 7.590171 -17.184809 0
M  V30 35 C 6.156615 5.568994 -18.402141 0 CFG=1
M  V30 36 O 8.464170 4.667104 -22.434073 0
M  V30 37 C 15.564548 4.623334 -20.570270 0
M  V30 38 N 14.288584 3.902375 -22.592599 0 CFG=1 CHG=1
M  V30 39 C 14.883986 3.443127 -21.298640 0 CFG=1
M  V30 40 C 15.150956 -0.645549 -20.038518 0 CFG=2
M  V30 41 C 14.015714 6.223985 -21.642602 0
M  V30 42 F 4.851044 7.473009 -18.966504 0
M  V30 43 C 13.638315 2.841014 -23.414995 0
M  V30 44 H 7.477915 3.651298 -20.319061 0
M  V30 45 H 10.489697 3.339986 -16.385092 0
M  V30 46 H 9.361660 4.616760 -15.966520 0
M  V30 47 H 12.168661 1.243427 -23.360439 0
M  V30 48 H 13.101255 1.350102 -21.886758 0
M  V30 49 H 11.829596 2.524760 -22.217518 0
M  V30 50 H 9.847884 5.671192 -18.180071 0
M  V30 51 H 16.975368 -1.731913 -20.427647 0
M  V30 52 H 16.316539 -0.842714 -21.805630 0
M  V30 53 H 6.335052 4.790207 -16.398484 0
M  V30 54 H 7.707921 5.683753 -16.927553 0
M  V30 55 H 12.460703 4.738201 -21.958098 0
M  V30 56 H 13.089925 5.445916 -23.416954 0
M  V30 57 H 11.473141 4.866062 -15.109995 0
M  V30 58 H 11.813877 5.843187 -20.229956 0
M  V30 59 H 11.386876 2.516582 -19.238340 0
M  V30 60 H 16.208069 7.214045 -20.140906 0
M  V30 61 H 14.730434 7.782428 -19.414188 0
M  V30 62 H 15.698577 6.569832 -18.587404 0
M  V30 63 H 16.415106 2.171112 -19.356021 0
M  V30 64 H 13.532605 -0.809696 -17.240733 0
M  V30 65 H 13.416112 0.935473 -17.505032 0
M  V30 66 H 12.769985 -0.189797 -18.711732 0
M  V30 67 H 12.184543 3.949849 -17.928677 0
M  V30 68 H 6.936848 2.979638 -18.132023 0
M  V30 69 H 8.007926 3.097047 -16.805933 0
M  V30 70 H 12.176064 8.763301 -18.660896 0
M  V30 71 H 15.580276 1.567865 -22.223329 0
M  V30 72 H 16.831694 2.701387 -21.851327 0
M  V30 73 H 15.775374 0.069919 -17.997375 0
M  V30 74 H 9.881522 5.312091 -21.110827 0
M  V30 75 H 9.750349 3.568843 -21.365677 0
M  V30 76 H 9.197483 2.824073 -18.888734 0
M  V30 77 H 11.425873 6.931888 -17.747398 0
M  V30 78 H 13.160429 6.879837 -17.726968 0
M  V30 79 H 5.455789 4.832067 -18.792883 0
M  V30 80 H 7.877060 5.406124 -22.329543 0
M  V30 81 H 16.402013 4.993820 -21.164463 0
M  V30 82 H 15.993742 4.291137 -19.625913 0
M  V30 83 H 14.057832 3.094826 -20.680891 0
M  V30 84 H 13.295143 7.030657 -21.512913 0
M  V30 85 H 14.823444 6.655749 -22.236250 0
M  V30 86 H 13.096092 3.333472 -24.213990 0
M  V30 87 H 14.394699 2.229983 -23.905874 0
M  V30 88 H 15.062586 4.242354 -23.146411 0
M  V30 END ATOM
M  V30 BEGIN BOND
M  V30 1 1 5 2
M  V30 2 1 6 4
M  V30 3 1 12 4
M  V30 4 1 13 2
M  V30 5 1 17 9
M  V30 6 1 18 7
M  V30 7 1 19 1
M  V30 8 2 19 10
M  V30 9 1 20 4
M  V30 10 1 21 20
M  V30 11 2 22 19
M  V30 12 1 23 4
M  V30 13 1 25 5
M  V30 14 1 25 14
M  V30 15 1 25 16
M  V30 16 1 26 8
M  V30 17 1 28 20
M  V30 18 1 29 21
M  V30 19 1 29 24
M  V30 20 1 9 30 CFG=1
M  V30 21 1 30 14
M  V30 22 1 31 1
M  V30 23 1 32 1
M  V30 24 1 32 5
M  V30 25 1 32 26
M  V30 26 1 33 14
M  V30 27 1 33 27
M  V30 28 1 34 18
M  V30 29 1 35 8
M  V30 30 1 35 18
M  V30 31 1 35 19
M  V30 32 1 36 31
M  V30 33 1 37 9
M  V30 34 1 38 11
M  V30 35 1 39 28
M  V30 36 1 39 37
M  V30 37 1 39 38
M  V30 38 1 40 6
M  V30 39 1 40 15 CFG=3
M  V30 40 1 40 21
M  V30 41 1 40 29
M  V30 42 1 41 9
M  V30 43 1 41 11
M  V30 44 1 42 18
M  V30 45 1 43 3
M  V30 46 1 43 38
M  V30 47 1 1 44 CFG=3
M  V30 48 1 45 2
M  V30 49 1 46 2
M  V30 50 1 47 3
M  V30 51 1 48 3
M  V30 52 1 49 3
M  V30 53 1 5 50 CFG=1
M  V30 54 1 51 6
M  V30 55 1 52 6
M  V30 56 1 53 8
M  V30 57 1 54 8
M  V30 58 1 55 11
M  V30 59 1 56 11
M  V30 60 1 57 13
M  V30 61 1 14 58 CFG=3
M  V30 62 1 59 16
M  V30 63 1 60 17
M  V30 64 1 61 17
M  V30 65 1 62 17
M  V30 66 1 20 63 CFG=1
M  V30 67 1 64 24
M  V30 68 1 65 24
M  V30 69 1 66 24
M  V30 70 1 25 67 CFG=1
M  V30 71 1 68 26
M  V30 72 1 69 26
M  V30 73 1 70 27
M  V30 74 1 71 28
M  V30 75 1 72 28
M  V30 76 1 29 73 CFG=1
M  V30 77 1 74 31
M  V30 78 1 75 31
M  V30 79 1 32 76 CFG=3
M  V30 80 1 77 33
M  V30 81 1 78 33
M  V30 82 1 35 79 CFG=3
M  V30 83 1 80 36
M  V30 84 1 81 37
M  V30 85 1 82 37
M  V30 86 1 39 83 CFG=1
M  V30 87 1 84 41
M  V30 88 1 85 41
M  V30 89 1 86 43
M  V30 90 1 87 43
M  V30 91 1 38 88 CFG=3
M  V30 END BOND
M  V30 END CTAB
M  END
>  <i_epik_Tot_Q>  (1) 
1

>  <i_epik_Tot_abs_Q>  (1) 
1

>  <i_i_glide_confnum>  (1) 
44

>  <i_i_glide_lignum>  (1) 
90

>  <i_i_glide_posenum>  (1) 
289

>  <i_i_glide_rotatable_bonds>  (1) 
16

>  <i_lp_mmshare_version>  (1) 
72125

>  <i_m_source_file_index>  (1) 
57

>  <i_f3d_flags>  (1) 
0

>  <num_sample>  (1) 
100

>  <b_lp_Chiralities_Consistent>  (1) 
1

>  <r_epik_Charging_Adjusted_Penalty>  (1) 
0.01878207797614901

>  <r_epik_Ionization_Penalty>  (1) 
0.019451196131951093

>  <r_epik_Ionization_Penalty_Charging>  (1) 
0.01878207797614901

>  <r_epik_Ionization_Penalty_Neutral>  (1) 
0.0006691181558020811

>  <r_epik_State_Penalty>  (1) 
-0

>  <r_glide_ring_energy>  (1) 
0

>  <r_i_docking_score>  (1) 
-5.2031042183052421

>  <r_i_glide_ecoul>  (1) 
-9.1806618286441832

>  <r_i_glide_eff_state_penalty>  (1) 
-0

>  <r_i_glide_einternal>  (1) 
13.020309457114848

>  <r_i_glide_emodel>  (1) 
-31.961542752861064

>  <r_i_glide_emodel_strain>  (1) 
0.21411648231118363

>  <r_i_glide_energy>  (1) 
-30.720529951311061

>  <r_i_glide_erotb>  (1) 
0.34042408851888512

>  <r_i_glide_esite>  (1) 
-0.010606273547284148

>  <r_i_glide_evdw>  (1) 
-21.539868122666878

>  <r_i_glide_gscore>  (1) 
-5.2031042183052421

>  <r_i_glide_gscore_strain>  (1) 
0

>  <r_i_glide_hbond>  (1) 
-0.60799999999999998

>  <r_i_glide_ligand_efficiency>  (1) 
-0.12100242368151726

>  <r_i_glide_ligand_efficiency_ln>  (1) 
-1.0928135957056508

>  <r_i_glide_ligand_efficiency_sa>  (1) 
-0.42391965642792023

>  <r_i_glide_lipo>  (1) 
-1.2411632262970838

>  <r_i_glide_metal>  (1) 
-0

>  <r_i_glide_rewards>  (1) 
-1.2296661265497886

>  <r_lp_Energy>  (1) 
36.609592999999997

>  <r_lp_tautomer_probability>  (1) 
1

>  <s_epik_cmdline>  (1) 
J2VwaWtfcHl0aG9uJywgJy1waHQnLCAnMS4wJywgJy1waCcsICc3LjQnLCAnLXRuJywgJzgnLCAnLW1hJywgJzUwMCcsICctaW1hZScsICc8aW5maWxlLm1hZT4nLCAnLW9tYWUnLCAnPG91dGZpbGUubWFlPic=

>  <s_epik_input>  (1) 
RkMoRikoRilbQ0BASF0xW0NIMl1bQ0gyXVtDQEBIXShbQ0BASF0oUzEoPU8pPU8pW0NIMl1bT0hdKVtDQEBIXShbQ0gyXVtPSF0pW0NAQEhdKFtPSF0pW0NAQEhdKFtDSDJdW09IXSlPW0NAQF0yKFtDSDNdKVtDSDJdW0NAQEhdKE4oW0NIMl1bQ0gyXTIpW0NIMl1bQ0gzXSlbQ0gyXVtDQEhdKEMoRikoRilbQ0gyXTMpTihbQ0BAXTM0RilbQ0BIXTRbQ0gzXQ==

>  <s_glide_docking_method>  (1) 
confgen

>  <s_i_glide_gridfile>  (1) 
gpcr_drd2_6luq_protein_autoprepared_prepared

>  <s_lp_Force_Field>  (1) 
S-OPLS

>  <s_lp_Variant>  (1) 
DiffSBDD_56-2

>  <s_m_source_file>  (1) 
generated_generic_title2_ligand_DiffSBDD_2026-06-23_prepared.sdf

>  <GenAI_Model>  (1) 
DiffSBDD

>  <Protein>  (1) 
generic_title2

$$$$
DiffSBDD_78
     RDKit          3D

  0  0  0  0  0  0  0  0  0  0999 V3000
M  V30 BEGIN CTAB
M  V30 COUNTS 80 84 0 0 1
M  V30 BEGIN ATOM
M  V30 1 C 10.211332 6.192083 -7.848072 0 CFG=2
M  V30 2 C 8.790561 5.605515 -7.830740 0
M  V30 3 C 5.879006 4.667964 -12.955389 0 CFG=1
M  V30 4 C 7.189994 3.164376 -14.893540 0 CFG=2
M  V30 5 C 10.758284 6.397011 -6.417847 0
M  V30 6 N 7.566538 2.399840 -17.241138 0
M  V30 7 C 7.270352 2.674227 -13.427310 0 CFG=1
M  V30 8 C 8.369261 4.885089 -12.806446 0 CFG=1
M  V30 9 N 10.264559 7.521811 -8.517905 0 CFG=1 CHG=1
M  V30 10 C 11.146096 8.361989 -7.679679 0
M  V30 11 N 9.697348 5.500653 -13.115973 0 CFG=1 CHG=1
M  V30 12 C 6.907856 6.790594 -13.905070 0
M  V30 13 C 8.160166 2.525248 -15.907798 0
M  V30 14 C 6.388879 3.426574 -19.137542 0
M  V30 15 O 7.290168 4.601722 -14.912906 0
M  V30 16 C 10.073381 5.508749 -14.552099 0
M  V30 17 C 6.057623 4.776456 -19.797317 0 CFG=1
M  V30 18 C 5.858147 4.014461 -11.573261 0
M  V30 19 C 7.114761 5.276342 -13.654290 0 CFG=2
M  V30 20 F 5.375538 5.525923 -18.927638 0
M  V30 21 C 10.895336 7.904441 -6.253868 0
M  V30 22 C 5.951792 7.101192 -15.069425 0
M  V30 23 O 8.471496 4.261947 -18.350774 0
M  V30 24 C 8.480134 3.340257 -12.734670 0
M  V30 25 C 7.367163 5.513090 -20.132647 0 CFG=1
M  V30 26 C 9.775787 6.665832 -10.846894 0
M  V30 27 C 7.287427 3.669981 -17.911663 0 CFG=2
M  V30 28 C 10.672545 7.535529 -9.952296 0
M  V30 29 C 10.054274 6.747658 -12.369307 0
M  V30 30 C 5.147201 4.597803 -21.022782 0
M  V30 31 C 8.296215 5.565369 -18.904651 0
M  V30 32 C 5.974144 3.168858 -12.819001 0 CFG=1
M  V30 33 F 8.006463 4.903251 -21.133197 0
M  V30 34 H 10.875790 5.505436 -8.370258 0
M  V30 35 H 8.814712 4.543912 -7.593099 0
M  V30 36 H 8.175445 6.101080 -7.080614 0
M  V30 37 H 8.275781 5.697442 -8.785028 0
M  V30 38 H 4.929109 5.022445 -13.341875 0
M  V30 39 H 6.189301 2.914825 -15.235497 0
M  V30 40 H 11.734568 5.919584 -6.317712 0
M  V30 41 H 10.113797 5.990227 -5.639446 0
M  V30 42 H 8.176576 1.847237 -17.835276 0
M  V30 43 H 7.314340 1.586024 -13.360171 0
M  V30 44 H 8.119105 5.208274 -11.809030 0
M  V30 45 H 12.190911 8.169295 -7.934458 0
M  V30 46 H 10.975569 9.423015 -7.813039 0
M  V30 47 H 6.550441 7.265994 -12.991189 0
M  V30 48 H 7.842370 7.282204 -14.147341 0
M  V30 49 H 8.440697 1.531425 -15.557713 0
M  V30 50 H 9.076629 3.099090 -15.985360 0
M  V30 51 H 6.903638 2.763903 -19.833788 0
M  V30 52 H 5.476192 2.924206 -18.813886 0
M  V30 53 H 9.340229 5.990210 -15.198496 0
M  V30 54 H 11.040446 5.990026 -14.705093 0
M  V30 55 H 10.176607 4.489611 -14.904959 0
M  V30 56 H 6.702847 4.039570 -10.894680 0
M  V30 57 H 4.929420 3.992690 -11.037185 0
M  V30 58 H 11.689784 8.190207 -5.562807 0
M  V30 59 H 9.959959 8.328455 -5.886108 0
M  V30 60 H 5.808704 8.175255 -15.184865 0
M  V30 61 H 6.345317 6.727140 -16.014719 0
M  V30 62 H 4.975601 6.645750 -14.927464 0
M  V30 63 H 8.576617 3.037667 -11.695919 0
M  V30 64 H 9.383120 2.973303 -13.185025 0
M  V30 65 H 7.158229 6.524091 -20.483795 0
M  V30 66 H 8.737276 6.950604 -10.674394 0
M  V30 67 H 9.874462 5.629922 -10.522733 0
M  V30 68 H 6.788868 4.353792 -17.225824 0
M  V30 69 H 11.708230 7.203684 -10.040644 0
M  V30 70 H 10.643355 8.567338 -10.304935 0
M  V30 71 H 11.120403 6.921871 -12.521553 0
M  V30 72 H 9.541144 7.613499 -12.785024 0
M  V30 73 H 5.619962 3.973864 -21.781191 0
M  V30 74 H 4.207126 4.121575 -20.744050 0
M  V30 75 H 4.909957 5.557134 -21.482218 0
M  V30 76 H 7.890499 6.232792 -18.141341 0
M  V30 77 H 9.271505 5.965700 -19.184780 0
M  V30 78 H 5.095073 2.642857 -13.185051 0
M  V30 79 H 9.323883 7.897977 -8.456926 0
M  V30 80 H 10.353502 4.829628 -12.737446 0
M  V30 END ATOM
M  V30 BEGIN BOND
M  V30 1 1 2 1
M  V30 2 1 5 1
M  V30 3 1 7 4
M  V30 4 1 9 1
M  V30 5 1 10 9
M  V30 6 1 11 8
M  V30 7 1 13 4
M  V30 8 1 13 6
M  V30 9 1 15 4
M  V30 10 1 16 11
M  V30 11 1 17 14
M  V30 12 1 18 3
M  V30 13 1 19 3
M  V30 14 1 19 8
M  V30 15 1 19 12 CFG=3
M  V30 16 1 19 15
M  V30 17 1 17 20 CFG=1
M  V30 18 1 21 5
M  V30 19 1 21 10
M  V30 20 1 22 12
M  V30 21 1 24 7
M  V30 22 1 24 8
M  V30 23 1 25 17
M  V30 24 1 27 6
M  V30 25 1 27 14
M  V30 26 1 27 23
M  V30 27 1 28 9
M  V30 28 1 28 26
M  V30 29 1 29 11
M  V30 30 1 29 26
M  V30 31 1 30 17
M  V30 32 1 31 23
M  V30 33 1 31 25
M  V30 34 1 32 3
M  V30 35 1 32 7
M  V30 36 1 32 18
M  V30 37 1 33 25
M  V30 38 1 1 34 CFG=3
M  V30 39 1 35 2
M  V30 40 1 36 2
M  V30 41 1 37 2
M  V30 42 1 3 38 CFG=3
M  V30 43 1 4 39 CFG=3
M  V30 44 1 40 5
M  V30 45 1 41 5
M  V30 46 1 42 6
M  V30 47 1 7 43 CFG=3
M  V30 48 1 8 44 CFG=1
M  V30 49 1 45 10
M  V30 50 1 46 10
M  V30 51 1 47 12
M  V30 52 1 48 12
M  V30 53 1 49 13
M  V30 54 1 50 13
M  V30 55 1 51 14
M  V30 56 1 52 14
M  V30 57 1 53 16
M  V30 58 1 54 16
M  V30 59 1 55 16
M  V30 60 1 56 18
M  V30 61 1 57 18
M  V30 62 1 58 21
M  V30 63 1 59 21
M  V30 64 1 60 22
M  V30 65 1 61 22
M  V30 66 1 62 22
M  V30 67 1 63 24
M  V30 68 1 64 24
M  V30 69 1 25 65 CFG=3
M  V30 70 1 66 26
M  V30 71 1 67 26
M  V30 72 1 27 68 CFG=1
M  V30 73 1 69 28
M  V30 74 1 70 28
M  V30 75 1 71 29
M  V30 76 1 72 29
M  V30 77 1 73 30
M  V30 78 1 74 30
M  V30 79 1 75 30
M  V30 80 1 76 31
M  V30 81 1 77 31
M  V30 82 1 32 78 CFG=3
M  V30 83 1 9 79 CFG=3
M  V30 84 1 11 80 CFG=1
M  V30 END BOND
M  V30 END CTAB
M  END
>  <i_epik_Tot_Q>  (1) 
2

>  <i_epik_Tot_abs_Q>  (1) 
2

>  <i_i_glide_confnum>  (1) 
67

>  <i_i_glide_lignum>  (1) 
132

>  <i_i_glide_posenum>  (1) 
98

>  <i_i_glide_rotatable_bonds>  (1) 
9

>  <i_lp_mmshare_version>  (1) 
72125

>  <i_m_source_file_index>  (1) 
79

>  <i_f3d_flags>  (1) 
0

>  <num_sample>  (1) 
100

>  <b_lp_Chiralities_Consistent>  (1) 
1

>  <r_epik_Charging_Adjusted_Penalty>  (1) 
0.22182564166484353

>  <r_epik_Ionization_Penalty>  (1) 
0.22182564166592098

>  <r_epik_Ionization_Penalty_Charging>  (1) 
0.060182310347739972

>  <r_epik_Ionization_Penalty_Neutral>  (1) 
0.16164333131818101

>  <r_epik_State_Penalty>  (1) 
0.16164333131710357

>  <r_glide_ring_energy>  (1) 
0

>  <r_i_docking_score>  (1) 
-5.1992065538764933

>  <r_i_glide_ecoul>  (1) 
-4.4560906195993013

>  <r_i_glide_eff_state_penalty>  (1) 
0.16164333131710357

>  <r_i_glide_einternal>  (1) 
5.6834833061354093

>  <r_i_glide_emodel>  (1) 
-38.081350438895463

>  <r_i_glide_emodel_strain>  (1) 
1.5496370099039467

>  <r_i_glide_energy>  (1) 
-29.274306001514205

>  <r_i_glide_erotb>  (1) 
0.726867567680611

>  <r_i_glide_esite>  (1) 
-0.051437656618120921

>  <r_i_glide_evdw>  (1) 
-24.818215381914904

>  <r_i_glide_gscore>  (1) 
-5.3608498851935966

>  <r_i_glide_gscore_strain>  (1) 
0

>  <r_i_glide_hbond>  (1) 
0

>  <r_i_glide_ligand_efficiency>  (1) 
-0.15755171375383314

>  <r_i_glide_ligand_efficiency_ln>  (1) 
-1.1562766175313262

>  <r_i_glide_ligand_efficiency_sa>  (1) 
-0.50535253061509544

>  <r_i_glide_lipo>  (1) 
-2.7678722349042815

>  <r_i_glide_metal>  (1) 
-0

>  <r_i_glide_rewards>  (1) 
-1.3590831993161649

>  <r_lp_Energy>  (1) 
69.690649999999991

>  <s_epik_Chemistry_Notes>  (1) 
This compound contains an acetal/aminal-like group ( X-CH(R)-Y where X, Y are N, S, or O) that may be acid/base labile, releasing an aldehyde.

>  <s_epik_cmdline>  (1) 
J2VwaWtfcHl0aG9uJywgJy1waHQnLCAnMS4wJywgJy1waCcsICc3LjQnLCAnLXRuJywgJzgnLCAnLW1hJywgJzUwMCcsICctaW1hZScsICc8aW5maWxlLm1hZT4nLCAnLW9tYWUnLCAnPG91dGZpbGUubWFlPic=

>  <s_epik_input>  (1) 
W0NIM11bQ0BASF0xW0NIMl1bQ0gyXVtDSDJdTjFbQ0gyXVtDSDJdW0NIMl1OKFtDSDNdKVtDQEBIXTJbQ0gyXVtDQEBIXShbQ0BASF0oW0NIMl0zKVtDQEBIXTNbQ0BAXTI0W0NIMl1bQ0gzXSlbQ0BASF0oTzQpW0NIMl1bTkhdW0NASF0oW0NIMl1bQ0BdNShGKVtDSDNdKU9bQ0gyXVtDQEhdNUY=

>  <s_glide_docking_method>  (1) 
confgen

>  <s_i_glide_gridfile>  (1) 
gpcr_drd2_6luq_protein_autoprepared_prepared

>  <s_lp_Force_Field>  (1) 
S-OPLS

>  <s_lp_Variant>  (1) 
DiffSBDD_78-4

>  <s_m_source_file>  (1) 
generated_generic_title2_ligand_DiffSBDD_2026-06-23_prepared.sdf

>  <GenAI_Model>  (1) 
DiffSBDD

>  <Protein>  (1) 
generic_title2

$$$$
DiffSBDD_47
     RDKit          3D

  0  0  0  0  0  0  0  0  0  0999 V3000
M  V30 BEGIN CTAB
M  V30 COUNTS 52 54 0 0 1
M  V30 BEGIN ATOM
M  V30 1 C 8.104945 5.332870 -11.063978 0
M  V30 2 C 6.438871 7.590523 -14.582232 0
M  V30 3 O 6.401774 4.294563 -12.399167 0
M  V30 4 C 10.996021 7.119745 -7.920166 0 CFG=2
M  V30 5 C 11.010449 8.285865 -5.554957 0 CFG=2
M  V30 6 N 8.016282 5.447026 -13.498113 0
M  V30 7 C 9.775372 6.519987 -9.711878 0
M  V30 8 O 10.975503 10.552435 -4.784756 0
M  V30 9 C 10.909709 7.426427 -9.493160 0
M  V30 10 C 7.586898 4.790389 -9.862305 0
M  V30 11 C 12.119673 7.458449 -3.330542 0
M  V30 12 C 9.254662 5.991778 -8.584972 0
M  V30 13 O 8.174986 2.880699 -14.878956 0
M  V30 14 O 12.575342 6.814140 -2.389713 0
M  V30 15 C 11.771692 9.392391 -4.787472 0 CFG=1
M  V30 16 C 12.121307 8.974724 -3.348082 0
M  V30 17 C 7.429520 4.975054 -12.386155 0
M  V30 18 C 9.240592 6.221469 -10.986359 0
M  V30 19 C 8.172992 5.119386 -8.622697 0
M  V30 20 C 7.139401 3.768997 -15.209801 0
M  V30 21 O 9.835633 6.371903 -7.432873 0
M  V30 22 C 6.010756 6.303588 -16.680020 0
M  V30 23 S 11.375413 6.693440 -4.772577 0
M  V30 24 O 9.794774 6.788036 -12.103740 0
M  V30 25 C 11.293125 8.366077 -7.075121 0
M  V30 26 C 6.281259 6.181415 -15.167731 0
M  V30 27 C 7.481899 5.241630 -14.859972 0 CFG=1
M  V30 28 H 7.373073 8.056942 -14.893358 0
M  V30 29 H 5.617906 8.226067 -14.916148 0
M  V30 30 H 6.415756 7.588217 -13.492247 0
M  V30 31 H 11.775683 6.390632 -7.749323 0
M  V30 32 H 9.936893 8.402560 -5.415565 0
M  V30 33 H 8.861435 5.998739 -13.398072 0
M  V30 34 H 10.866237 10.850873 -5.675433 0
M  V30 35 H 11.816705 7.178916 -10.041908 0
M  V30 36 H 10.605711 8.451037 -9.706473 0
M  V30 37 H 6.735524 4.125219 -9.891679 0
M  V30 38 H 7.838754 1.998295 -14.929714 0
M  V30 39 H 12.710340 9.627257 -5.292089 0
M  V30 40 H 11.375260 9.325592 -2.634591 0
M  V30 41 H 13.086998 9.372082 -3.033955 0
M  V30 42 H 7.774667 4.711212 -7.706428 0
M  V30 43 H 6.224367 3.441376 -14.718767 0
M  V30 44 H 6.974669 3.659894 -16.280107 0
M  V30 45 H 6.858437 6.756491 -17.195145 0
M  V30 46 H 5.815689 5.343148 -17.152419 0
M  V30 47 H 5.139512 6.929891 -16.871396 0
M  V30 48 H 10.467756 7.417031 -11.895297 0
M  V30 49 H 12.332632 8.639475 -7.257003 0
M  V30 50 H 10.699512 9.190017 -7.464429 0
M  V30 51 H 5.390683 5.749979 -14.707762 0
M  V30 52 H 8.306187 5.540233 -15.508696 0
M  V30 END ATOM
M  V30 BEGIN BOND
M  V30 1 1 9 4
M  V30 2 1 9 7
M  V30 3 1 10 1
M  V30 4 2 12 7
M  V30 5 2 14 11
M  V30 6 1 15 5
M  V30 7 1 15 8
M  V30 8 1 16 11
M  V30 9 1 16 15
M  V30 10 1 17 1
M  V30 11 2 17 3
M  V30 12 1 17 6
M  V30 13 2 18 1
M  V30 14 1 18 7
M  V30 15 2 19 10
M  V30 16 1 19 12
M  V30 17 1 20 13
M  V30 18 1 21 4
M  V30 19 1 21 12
M  V30 20 1 23 5
M  V30 21 1 23 11
M  V30 22 1 24 18
M  V30 23 1 25 4
M  V30 24 1 25 5
M  V30 25 1 26 2
M  V30 26 1 26 22
M  V30 27 1 27 6
M  V30 28 1 27 20
M  V30 29 1 27 26
M  V30 30 1 28 2
M  V30 31 1 29 2
M  V30 32 1 30 2
M  V30 33 1 4 31 CFG=3
M  V30 34 1 5 32 CFG=3
M  V30 35 1 33 6
M  V30 36 1 34 8
M  V30 37 1 35 9
M  V30 38 1 36 9
M  V30 39 1 37 10
M  V30 40 1 38 13
M  V30 41 1 15 39 CFG=3
M  V30 42 1 40 16
M  V30 43 1 41 16
M  V30 44 1 42 19
M  V30 45 1 43 20
M  V30 46 1 44 20
M  V30 47 1 45 22
M  V30 48 1 46 22
M  V30 49 1 47 22
M  V30 50 1 48 24
M  V30 51 1 49 25
M  V30 52 1 50 25
M  V30 53 1 51 26
M  V30 54 1 27 52 CFG=3
M  V30 END BOND
M  V30 END CTAB
M  END
>  <i_epik_Tot_Q>  (1) 
0

>  <i_epik_Tot_abs_Q>  (1) 
0

>  <i_i_glide_confnum>  (1) 
128

>  <i_i_glide_lignum>  (1) 
76

>  <i_i_glide_posenum>  (1) 
104

>  <i_i_glide_rotatable_bonds>  (1) 
10

>  <i_lp_mmshare_version>  (1) 
72125

>  <i_m_source_file_index>  (1) 
48

>  <i_f3d_flags>  (1) 
0

>  <num_sample>  (1) 
100

>  <b_lp_Chiralities_Consistent>  (1) 
1

>  <r_epik_Charging_Adjusted_Penalty>  (1) 
0.019901406152345185

>  <r_epik_Ionization_Penalty>  (1) 
0.019911706661848872

>  <r_epik_Ionization_Penalty_Charging>  (1) 
0

>  <r_epik_Ionization_Penalty_Neutral>  (1) 
0.019911706661848872

>  <r_epik_State_Penalty>  (1) 
0.019901406152345185

>  <r_glide_ring_energy>  (1) 
0

>  <r_i_docking_score>  (1) 
-5.1871035500040019

>  <r_i_glide_ecoul>  (1) 
2.3157503192036808

>  <r_i_glide_eff_state_penalty>  (1) 
0.019901406152345185

>  <r_i_glide_einternal>  (1) 
10.656307107575998

>  <r_i_glide_emodel>  (1) 
-38.529779892232824

>  <r_i_glide_emodel_strain>  (1) 
2.3906432216730025

>  <r_i_glide_energy>  (1) 
-35.994289993274982

>  <r_i_glide_erotb>  (1) 
0.75018821045154971

>  <r_i_glide_esite>  (1) 
0

>  <r_i_glide_evdw>  (1) 
-38.310040312478662

>  <r_i_glide_gscore>  (1) 
-5.2070049561563474

>  <r_i_glide_gscore_strain>  (1) 
0

>  <r_i_glide_hbond>  (1) 
0

>  <r_i_glide_ligand_efficiency>  (1) 
-0.19211494629644452

>  <r_i_glide_ligand_efficiency_ln>  (1) 
-1.2074721903554646

>  <r_i_glide_ligand_efficiency_sa>  (1) 
-0.57634483888933363

>  <r_i_glide_lipo>  (1) 
-2.4032850781834711

>  <r_i_glide_metal>  (1) 
-0

>  <r_i_glide_rewards>  (1) 
-1.9857686206810443

>  <r_lp_Energy>  (1) 
10.170142999999999

>  <r_lp_tautomer_probability>  (1) 
1

>  <s_epik_cmdline>  (1) 
J2VwaWtfcHl0aG9uJywgJy1waHQnLCAnMS4wJywgJy1waCcsICc3LjQnLCAnLXRuJywgJzgnLCAnLW1hJywgJzUwMCcsICctaW1hZScsICc8aW5maWxlLm1hZT4nLCAnLW9tYWUnLCAnPG91dGZpbGUubWFlPic=

>  <s_epik_input>  (1) 
W0NIM11bQ0hdKFtDSDNdKVtDQEhdKFtDSDJdW09IXSlbTkhdQyg9TyljKGMxW09IXSlbY0hdW2NIXWMoYzEyKU9bQ0BASF0oW0NIMl0yKVtDSDJdW0NAQEhdM1tDQEBIXShbT0hdKVtDSDJdQyg9TylTMw==

>  <s_glide_docking_method>  (1) 
confgen

>  <s_i_glide_gridfile>  (1) 
gpcr_drd2_6luq_protein_autoprepared_prepared

>  <s_lp_Force_Field>  (1) 
S-OPLS

>  <s_lp_Variant>  (1) 
DiffSBDD_47-1

>  <s_m_source_file>  (1) 
generated_generic_title2_ligand_DiffSBDD_2026-06-23_prepared.sdf

>  <GenAI_Model>  (1) 
DiffSBDD

>  <Protein>  (1) 
generic_title2

$$$$
DiffSBDD_67
     RDKit          3D

  0  0  0  0  0  0  0  0  0  0999 V3000
M  V30 BEGIN CTAB
M  V30 COUNTS 67 69 0 0 1
M  V30 BEGIN ATOM
M  V30 1 C 8.529083 2.481032 -17.137742 0
M  V30 2 C 6.975726 2.666653 -13.637304 0
M  V30 3 C 8.889629 4.793742 -18.180383 0
M  V30 4 C 7.778810 6.833271 -12.031650 0
M  V30 5 F 8.433417 0.731022 -18.775309 0
M  V30 6 C 9.401789 5.415398 -9.371905 0
M  V30 7 C 10.238447 8.753051 -7.526515 0
M  V30 8 C 11.493310 8.408907 -5.334509 0
M  V30 9 C 9.873702 6.877156 -9.202706 0 CFG=2
M  V30 10 C 11.280967 6.525919 -7.022809 0
M  V30 11 C 6.943336 0.893916 -15.420816 0
M  V30 12 C 7.374493 2.170383 -14.995855 0
M  V30 13 C 11.350783 6.888125 -5.529451 0
M  V30 14 C 5.688017 5.621742 -12.401251 0
M  V30 15 C 7.303101 0.413252 -16.693757 0
M  V30 16 C 11.057845 7.270284 -10.113678 0
M  V30 17 C 8.092504 1.201961 -17.551781 0
M  V30 18 C 6.820982 4.685491 -11.978323 0 CFG=2
M  V30 19 C 6.370964 6.979725 -12.628890 0
M  V30 20 O 6.263389 2.026742 -12.865029 0
M  V30 21 C 8.172942 2.965004 -15.858195 0
M  V30 22 N 7.719954 5.591869 -11.230922 0 CFG=1 CHG=1
M  V30 23 F 7.613280 4.833564 -18.562632 0
M  V30 24 C 10.872289 3.280661 -17.679718 0
M  V30 25 C 9.007870 4.995138 -10.799796 0
M  V30 26 C 9.386478 3.337177 -18.072500 0
M  V30 27 C 10.099011 7.236475 -7.710285 0
M  V30 28 C 7.508330 4.051217 -13.228326 0
M  V30 29 F 11.332596 2.031408 -17.750795 0
M  V30 30 C 10.376133 9.158932 -6.056774 0
M  V30 31 H 8.968478 5.339364 -17.240297 0
M  V30 32 H 9.459465 5.348773 -18.926628 0
M  V30 33 H 8.508267 6.719332 -12.834335 0
M  V30 34 H 8.071811 7.709426 -11.456275 0
M  V30 35 H 8.552172 5.237372 -8.710550 0
M  V30 36 H 10.175189 4.736604 -9.020456 0
M  V30 37 H 11.094852 9.143271 -8.075646 0
M  V30 38 H 9.337204 9.190088 -7.949016 0
M  V30 39 H 11.475766 8.648195 -4.271335 0
M  V30 40 H 12.443129 8.790323 -5.712915 0
M  V30 41 H 9.037194 7.494344 -9.517615 0
M  V30 42 H 11.209284 5.445772 -7.131819 0
M  V30 43 H 12.205227 6.831189 -7.502690 0
M  V30 44 H 6.334814 0.282121 -14.769213 0
M  V30 45 H 10.446348 6.537406 -5.028965 0
M  V30 46 H 12.174989 6.362587 -5.049077 0
M  V30 47 H 5.140291 5.269114 -13.276368 0
M  V30 48 H 4.975427 5.712894 -11.580595 0
M  V30 49 H 6.971768 -0.563998 -17.013547 0
M  V30 50 H 11.982382 6.790556 -9.801376 0
M  V30 51 H 10.881650 7.021233 -11.158696 0
M  V30 52 H 11.232656 8.344693 -10.102207 0
M  V30 53 H 6.452506 3.925783 -11.287004 0
M  V30 54 H 6.421707 7.230012 -13.689173 0
M  V30 55 H 5.813548 7.771239 -12.125957 0
M  V30 56 H 8.512583 3.937711 -15.545333 0
M  V30 57 H 11.484277 3.878179 -18.355691 0
M  V30 58 H 11.043629 3.637412 -16.663957 0
M  V30 59 H 8.891345 3.911193 -10.783689 0
M  V30 60 H 9.795028 5.177797 -11.529448 0
M  V30 61 H 9.306091 2.918352 -19.076424 0
M  V30 62 H 9.191171 6.942556 -7.178671 0
M  V30 63 H 8.577196 3.920440 -13.066610 0
M  V30 64 H 7.401886 4.749061 -14.057979 0
M  V30 65 H 9.427346 8.933606 -5.585087 0
M  V30 66 H 10.575340 10.228275 -5.970620 0
M  V30 67 H 7.225721 5.858259 -10.385436 0
M  V30 END ATOM
M  V30 BEGIN BOND
M  V30 1 1 9 6
M  V30 2 1 12 2
M  V30 3 1 12 11
M  V30 4 1 13 8
M  V30 5 1 13 10
M  V30 6 2 15 11
M  V30 7 1 16 9
M  V30 8 2 17 1
M  V30 9 1 17 5
M  V30 10 1 17 15
M  V30 11 1 18 14
M  V30 12 1 19 4
M  V30 13 1 19 14
M  V30 14 2 20 2
M  V30 15 1 21 1
M  V30 16 2 21 12
M  V30 17 1 22 4
M  V30 18 1 22 18
M  V30 19 1 23 3
M  V30 20 1 25 6
M  V30 21 1 25 22
M  V30 22 1 26 1
M  V30 23 1 26 3
M  V30 24 1 26 24
M  V30 25 1 27 7
M  V30 26 1 27 9
M  V30 27 1 27 10
M  V30 28 1 28 2
M  V30 29 1 28 18
M  V30 30 1 29 24
M  V30 31 1 30 7
M  V30 32 1 30 8
M  V30 33 1 31 3
M  V30 34 1 32 3
M  V30 35 1 33 4
M  V30 36 1 34 4
M  V30 37 1 35 6
M  V30 38 1 36 6
M  V30 39 1 37 7
M  V30 40 1 38 7
M  V30 41 1 39 8
M  V30 42 1 40 8
M  V30 43 1 9 41 CFG=3
M  V30 44 1 42 10
M  V30 45 1 43 10
M  V30 46 1 44 11
M  V30 47 1 45 13
M  V30 48 1 46 13
M  V30 49 1 47 14
M  V30 50 1 48 14
M  V30 51 1 49 15
M  V30 52 1 50 16
M  V30 53 1 51 16
M  V30 54 1 52 16
M  V30 55 1 18 53 CFG=1
M  V30 56 1 54 19
M  V30 57 1 55 19
M  V30 58 1 56 21
M  V30 59 1 57 24
M  V30 60 1 58 24
M  V30 61 1 59 25
M  V30 62 1 60 25
M  V30 63 1 61 26
M  V30 64 1 62 27
M  V30 65 1 63 28
M  V30 66 1 64 28
M  V30 67 1 65 30
M  V30 68 1 66 30
M  V30 69 1 22 67 CFG=1
M  V30 END BOND
M  V30 END CTAB
M  END
>  <i_epik_Tot_Q>  (1) 
1

>  <i_epik_Tot_abs_Q>  (1) 
1

>  <i_i_glide_confnum>  (1) 
9

>  <i_i_glide_lignum>  (1) 
109

>  <i_i_glide_posenum>  (1) 
318

>  <i_i_glide_rotatable_bonds>  (1) 
10

>  <i_lp_mmshare_version>  (1) 
72125

>  <i_m_source_file_index>  (1) 
68

>  <i_f3d_flags>  (1) 
0

>  <num_sample>  (1) 
100

>  <b_lp_Chiralities_Consistent>  (1) 
1

>  <r_epik_Charging_Adjusted_Penalty>  (1) 
0.0091991127420811905

>  <r_epik_Ionization_Penalty>  (1) 
0.0045995563710408641

>  <r_epik_Ionization_Penalty_Charging>  (1) 
0.0045995563710406013

>  <r_epik_Ionization_Penalty_Neutral>  (1) 
2.6311653613664267e-16

>  <r_epik_State_Penalty>  (1) 
0.0045995563710405883

>  <r_glide_ring_energy>  (1) 
0

>  <r_i_docking_score>  (1) 
-5.1868922263626329

>  <r_i_glide_ecoul>  (1) 
-4.5467683824967802

>  <r_i_glide_eff_state_penalty>  (1) 
0.0045995563710405883

>  <r_i_glide_einternal>  (1) 
12.118929670178481

>  <r_i_glide_emodel>  (1) 
-40.856558355070852

>  <r_i_glide_emodel_strain>  (1) 
0.72939210645561303

>  <r_i_glide_energy>  (1) 
-34.827552697729068

>  <r_i_glide_erotb>  (1) 
0.77002039440311598

>  <r_i_glide_esite>  (1) 
-0.070472168008375441

>  <r_i_glide_evdw>  (1) 
-30.280784315232289

>  <r_i_glide_gscore>  (1) 
-5.1914917827336735

>  <r_i_glide_gscore_strain>  (1) 
0

>  <r_i_glide_hbond>  (1) 
-0.06765468738593268

>  <r_i_glide_ligand_efficiency>  (1) 
-0.1728964075454211

>  <r_i_glide_ligand_efficiency_ln>  (1) 
-1.1785184295469502

>  <r_i_glide_ligand_efficiency_sa>  (1) 
-0.53722933768777847

>  <r_i_glide_lipo>  (1) 
-1.9162802173021865

>  <r_i_glide_metal>  (1) 
-0

>  <r_i_glide_rewards>  (1) 
-1.7110506313041636

>  <r_lp_Energy>  (1) 
33.086953000000001

>  <r_lp_tautomer_probability>  (1) 
0.99990000499974985

>  <s_epik_cmdline>  (1) 
J2VwaWtfcHl0aG9uJywgJy1waHQnLCAnMS4wJywgJy1waCcsICc3LjQnLCAnLXRuJywgJzgnLCAnLW1hJywgJzUwMCcsICctaW1hZScsICc8aW5maWxlLm1hZT4nLCAnLW9tYWUnLCAnPG91dGZpbGUubWFlPic=

>  <s_epik_input>  (1) 
RltDSDJdW0NIXShbQ0gyXUYpYzFjKEYpW2NIXVtjSF1jKFtjSF0xKUMoPU8pW0NIMl1bQ0BASF0yW0NIMl1bQ0gyXVtDSDJdTjJbQ0gyXVtDSDJdW0NASF0oW0NIM10pW0NIXTNbQ0gyXVtDSDJdW0NIMl1bQ0gyXVtDSDJdMw==

>  <s_glide_docking_method>  (1) 
confgen

>  <s_i_glide_gridfile>  (1) 
gpcr_drd2_6luq_protein_autoprepared_prepared

>  <s_lp_Force_Field>  (1) 
S-OPLS

>  <s_lp_Variant>  (1) 
DiffSBDD_67-1

>  <s_m_source_file>  (1) 
generated_generic_title2_ligand_DiffSBDD_2026-06-23_prepared.sdf

>  <GenAI_Model>  (1) 
DiffSBDD

>  <Protein>  (1) 
generic_title2

$$$$
DiffSBDD_18
     RDKit          3D

  0  0  0  0  0  0  0  0  0  0999 V3000
M  V30 BEGIN CTAB
M  V30 COUNTS 38 39 0 0 1
M  V30 BEGIN ATOM
M  V30 1 C 11.365864 6.678071 -4.478156 0
M  V30 2 C 11.790471 6.555567 -3.139928 0
M  V30 3 O 10.975410 9.190227 -7.094126 0
M  V30 4 S 10.950993 7.590231 -9.785889 0
M  V30 5 C 6.125517 7.533560 -15.398352 0
M  V30 6 C 10.175409 6.935196 -11.308370 0
M  V30 7 N 8.811417 6.726004 -11.184346 0
M  V30 8 C 7.066559 6.612559 -14.615590 0
M  V30 9 C 10.912625 8.104041 -6.537929 0
M  V30 10 C 6.502878 6.282540 -12.035348 0 CFG=1
M  V30 11 C 11.818882 9.079298 -4.389485 0
M  V30 12 C 8.000810 6.146535 -12.203225 0 CFG=1
M  V30 13 N 10.422017 6.998429 -7.125832 0
M  V30 14 C 11.375410 7.945377 -5.110173 0
M  V30 15 C 12.242244 8.948373 -3.054193 0
M  V30 16 C 12.229268 7.688747 -2.430713 0
M  V30 17 O 10.847718 6.713378 -12.312951 0
M  V30 18 C 9.819340 7.015701 -8.467283 0
M  V30 19 C 7.213906 7.017990 -13.156341 0 CFG=1
M  V30 20 O 5.827035 5.088208 -12.375346 0
M  V30 21 H 11.030553 5.802822 -5.011417 0
M  V30 22 H 11.780094 5.590231 -2.657584 0
M  V30 23 H 5.982652 7.168813 -16.415557 0
M  V30 24 H 5.147166 7.594589 -14.922719 0
M  V30 25 H 6.532490 8.541715 -15.466949 0
M  V30 26 H 8.378953 6.988126 -10.301839 0
M  V30 27 H 8.053670 6.617377 -15.074988 0
M  V30 28 H 6.715125 5.583476 -14.686551 0
M  V30 29 H 6.086480 6.817212 -11.185189 0
M  V30 30 H 11.828876 10.050933 -4.862099 0
M  V30 31 H 8.362944 5.201802 -12.607672 0
M  V30 32 H 10.401472 6.132682 -6.609632 0
M  V30 33 H 12.575409 9.817114 -2.506658 0
M  V30 34 H 12.555997 7.591749 -1.407172 0
M  V30 35 H 8.975411 7.696069 -8.445374 0
M  V30 36 H 9.452206 6.013221 -8.687463 0
M  V30 37 H 7.375440 8.084064 -13.016779 0
M  V30 38 H 5.860263 4.509832 -11.628412 0
M  V30 END ATOM
M  V30 BEGIN BOND
M  V30 1 1 2 1
M  V30 2 1 6 4
M  V30 3 1 7 6
M  V30 4 1 8 5
M  V30 5 2 9 3
M  V30 6 1 12 7
M  V30 7 1 12 10
M  V30 8 1 13 9
M  V30 9 2 14 1
M  V30 10 1 14 9
M  V30 11 1 14 11
M  V30 12 2 15 11
M  V30 13 2 16 2
M  V30 14 1 16 15
M  V30 15 2 17 6
M  V30 16 1 18 4
M  V30 17 1 18 13
M  V30 18 1 19 8
M  V30 19 1 19 10
M  V30 20 1 19 12
M  V30 21 1 20 10
M  V30 22 1 21 1
M  V30 23 1 22 2
M  V30 24 1 23 5
M  V30 25 1 24 5
M  V30 26 1 25 5
M  V30 27 1 26 7
M  V30 28 1 27 8
M  V30 29 1 28 8
M  V30 30 1 10 29 CFG=1
M  V30 31 1 30 11
M  V30 32 1 12 31 CFG=3
M  V30 33 1 32 13
M  V30 34 1 33 15
M  V30 35 1 34 16
M  V30 36 1 35 18
M  V30 37 1 36 18
M  V30 38 1 19 37 CFG=3
M  V30 39 1 38 20
M  V30 END BOND
M  V30 END CTAB
M  END
>  <i_epik_Tot_Q>  (1) 
0

>  <i_epik_Tot_abs_Q>  (1) 
0

>  <i_i_glide_confnum>  (1) 
54

>  <i_i_glide_lignum>  (1) 
34

>  <i_i_glide_posenum>  (1) 
316

>  <i_i_glide_rotatable_bonds>  (1) 
9

>  <i_lp_mmshare_version>  (1) 
72125

>  <i_m_source_file_index>  (1) 
19

>  <i_f3d_flags>  (1) 
0

>  <num_sample>  (1) 
100

>  <b_lp_Chiralities_Consistent>  (1) 
1

>  <r_epik_Charging_Adjusted_Penalty>  (1) 
0

>  <r_epik_Ionization_Penalty>  (1) 
2.0525633642560989e-05

>  <r_epik_Ionization_Penalty_Charging>  (1) 
0

>  <r_epik_Ionization_Penalty_Neutral>  (1) 
2.0525633642560989e-05

>  <r_epik_State_Penalty>  (1) 
-0

>  <r_glide_ring_energy>  (1) 
0

>  <r_i_docking_score>  (1) 
-5.1846214930430738

>  <r_i_glide_ecoul>  (1) 
-7.5050871100236725

>  <r_i_glide_eff_state_penalty>  (1) 
-0

>  <r_i_glide_einternal>  (1) 
12.042605113796748

>  <r_i_glide_emodel>  (1) 
-49.849345905342531

>  <r_i_glide_emodel_strain>  (1) 
0.96450070154896395

>  <r_i_glide_energy>  (1) 
-42.557243834269315

>  <r_i_glide_erotb>  (1) 
2.5324251451788915

>  <r_i_glide_esite>  (1) 
-0.12020425213021842

>  <r_i_glide_evdw>  (1) 
-35.052156724245641

>  <r_i_glide_gscore>  (1) 
-5.1846214930430738

>  <r_i_glide_gscore_strain>  (1) 
0

>  <r_i_glide_hbond>  (1) 
-0.15224777082315241

>  <r_i_glide_ligand_efficiency>  (1) 
-0.25923107465215367

>  <r_i_glide_ligand_efficiency_ln>  (1) 
-1.2975397594473039

>  <r_i_glide_ligand_efficiency_sa>  (1) 
-0.70366139580463538

>  <r_i_glide_lipo>  (1) 
-2.4093177282031175

>  <r_i_glide_metal>  (1) 
-0

>  <r_i_glide_rewards>  (1) 
-2.1569059843496445

>  <r_lp_Energy>  (1) 
17.543890999999999

>  <r_lp_tautomer_probability>  (1) 
1

>  <s_epik_Chemistry_Notes>  (1) 
This compound contains an acetal/aminal-like group ( X-CH(R)-Y where X, Y are N, S, or O) that may be acid/base labile, releasing an aldehyde.

>  <s_epik_cmdline>  (1) 
J2VwaWtfcHl0aG9uJywgJy1waHQnLCAnMS4wJywgJy1waCcsICc3LjQnLCAnLXRuJywgJzgnLCAnLW1hJywgJzUwMCcsICctaW1hZScsICc8aW5maWxlLm1hZT4nLCAnLW9tYWUnLCAnPG91dGZpbGUubWFlPic=

>  <s_epik_input>  (1) 
W2NIXTFbY0hdW2NIXVtjSF1bY0hdYzFDKD1PKVtOSF1bQ0gyXVNDKD1PKVtOSF1bQ0BASF0oW0NIXTJbT0hdKVtDQEhdMltDSDJdW0NIM10=

>  <s_glide_docking_method>  (1) 
confgen

>  <s_i_glide_gridfile>  (1) 
gpcr_drd2_6luq_protein_autoprepared_prepared

>  <s_lp_Force_Field>  (1) 
S-OPLS

>  <s_lp_Variant>  (1) 
DiffSBDD_18-1

>  <s_m_source_file>  (1) 
generated_generic_title2_ligand_DiffSBDD_2026-06-23_prepared.sdf

>  <GenAI_Model>  (1) 
DiffSBDD

>  <Protein>  (1) 
generic_title2

$$$$
DiffSBDD_67
     RDKit          3D

  0  0  0  0  0  0  0  0  0  0999 V3000
M  V30 BEGIN CTAB
M  V30 COUNTS 67 69 0 0 1
M  V30 BEGIN ATOM
M  V30 1 C 7.906439 3.582348 -17.488312 0
M  V30 2 C 7.479283 3.434994 -13.674824 0
M  V30 3 C 7.452529 5.827232 -18.567012 0
M  V30 4 C 7.334706 7.751293 -12.448584 0
M  V30 5 F 7.470988 1.908663 -19.150133 0
M  V30 6 C 9.802707 8.089636 -10.676188 0
M  V30 7 C 9.294224 7.141272 -7.916120 0
M  V30 8 C 10.043378 6.617973 -5.586204 0
M  V30 9 C 10.974386 8.047684 -9.668000 0 CFG=2
M  V30 10 C 11.698534 7.487317 -7.264619 0
M  V30 11 C 7.083074 1.752621 -15.500859 0
M  V30 12 C 7.498410 3.051187 -15.128287 0
M  V30 13 C 11.491918 6.556323 -6.056127 0
M  V30 14 C 5.872543 5.799511 -12.252988 0
M  V30 15 C 7.078954 1.371474 -16.855941 0
M  V30 16 C 12.282914 7.721689 -10.391950 0
M  V30 17 C 7.485455 2.282060 -17.848813 0
M  V30 18 C 7.337249 5.414250 -12.011338 0 CFG=2
M  V30 19 C 5.962748 7.196837 -12.876436 0
M  V30 20 O 7.087023 2.681344 -12.787703 0
M  V30 21 C 7.917185 3.966389 -16.128035 0
M  V30 22 N 7.920217 6.708438 -11.585215 0 CFG=1 CHG=1
M  V30 23 F 7.780050 6.640013 -19.570922 0
M  V30 24 C 9.842522 4.920974 -18.465884 0
M  V30 25 C 9.382061 6.755035 -11.335302 0
M  V30 26 C 8.344094 4.574074 -18.566107 0
M  V30 27 C 10.748087 7.127009 -8.434918 0
M  V30 28 C 7.980714 4.850535 -13.313867 0
M  V30 29 F 10.138630 5.569571 -17.339247 0
M  V30 30 C 9.105414 6.212435 -6.723455 0
M  V30 31 H 6.401810 5.567177 -18.703007 0
M  V30 32 H 7.547068 6.391068 -17.640365 0
M  V30 33 H 7.962839 7.929174 -13.322018 0
M  V30 34 H 7.241132 8.693223 -11.906403 0
M  V30 35 H 10.020922 8.790226 -11.476596 0
M  V30 36 H 8.974246 8.546268 -10.148497 0
M  V30 37 H 8.992659 8.155712 -7.649565 0
M  V30 38 H 8.605111 6.788557 -8.678160 0
M  V30 39 H 9.898443 5.989912 -4.711900 0
M  V30 40 H 9.808056 7.630689 -5.262032 0
M  V30 41 H 11.071402 9.063236 -9.279521 0
M  V30 42 H 12.736645 7.440620 -7.584056 0
M  V30 43 H 11.524075 8.518505 -6.954918 0
M  V30 44 H 6.764515 1.048060 -14.744464 0
M  V30 45 H 11.763190 5.538105 -6.332110 0
M  V30 46 H 12.130956 6.819939 -5.214970 0
M  V30 47 H 5.322742 5.097135 -12.880350 0
M  V30 48 H 5.348779 5.862843 -11.296934 0
M  V30 49 H 6.759861 0.377589 -17.135501 0
M  V30 50 H 12.175407 6.818379 -10.989343 0
M  V30 51 H 12.583186 8.511925 -11.072686 0
M  V30 52 H 13.116484 7.590231 -9.705272 0
M  V30 53 H 7.426095 4.695660 -11.193736 0
M  V30 54 H 5.901529 7.142091 -13.964734 0
M  V30 55 H 5.141706 7.827763 -12.534637 0
M  V30 56 H 8.240872 4.956678 -15.864627 0
M  V30 57 H 10.457656 4.021354 -18.497714 0
M  V30 58 H 10.151396 5.568891 -19.286657 0
M  V30 59 H 9.623177 5.915512 -10.684423 0
M  V30 60 H 9.942794 6.599965 -12.257311 0
M  V30 61 H 8.201702 4.099697 -19.537571 0
M  V30 62 H 10.967344 6.102813 -8.736922 0
M  V30 63 H 9.065319 4.789103 -13.220353 0
M  V30 64 H 7.763217 5.566605 -14.100147 0
M  V30 65 H 9.306456 5.191874 -7.051334 0
M  V30 66 H 8.071117 6.235744 -6.384891 0
M  V30 67 H 7.499117 6.923001 -10.674107 0
M  V30 END ATOM
M  V30 BEGIN BOND
M  V30 1 1 9 6
M  V30 2 1 12 2
M  V30 3 1 12 11
M  V30 4 1 13 8
M  V30 5 1 13 10
M  V30 6 2 15 11
M  V30 7 1 16 9
M  V30 8 2 17 1
M  V30 9 1 17 5
M  V30 10 1 17 15
M  V30 11 1 18 14
M  V30 12 1 19 4
M  V30 13 1 19 14
M  V30 14 2 20 2
M  V30 15 1 21 1
M  V30 16 2 21 12
M  V30 17 1 22 4
M  V30 18 1 22 18
M  V30 19 1 23 3
M  V30 20 1 25 6
M  V30 21 1 25 22
M  V30 22 1 26 1
M  V30 23 1 26 3
M  V30 24 1 26 24
M  V30 25 1 27 7
M  V30 26 1 27 9
M  V30 27 1 27 10
M  V30 28 1 28 2
M  V30 29 1 28 18
M  V30 30 1 29 24
M  V30 31 1 30 7
M  V30 32 1 30 8
M  V30 33 1 31 3
M  V30 34 1 32 3
M  V30 35 1 33 4
M  V30 36 1 34 4
M  V30 37 1 35 6
M  V30 38 1 36 6
M  V30 39 1 37 7
M  V30 40 1 38 7
M  V30 41 1 39 8
M  V30 42 1 40 8
M  V30 43 1 9 41 CFG=1
M  V30 44 1 42 10
M  V30 45 1 43 10
M  V30 46 1 44 11
M  V30 47 1 45 13
M  V30 48 1 46 13
M  V30 49 1 47 14
M  V30 50 1 48 14
M  V30 51 1 49 15
M  V30 52 1 50 16
M  V30 53 1 51 16
M  V30 54 1 52 16
M  V30 55 1 18 53 CFG=1
M  V30 56 1 54 19
M  V30 57 1 55 19
M  V30 58 1 56 21
M  V30 59 1 57 24
M  V30 60 1 58 24
M  V30 61 1 59 25
M  V30 62 1 60 25
M  V30 63 1 61 26
M  V30 64 1 62 27
M  V30 65 1 63 28
M  V30 66 1 64 28
M  V30 67 1 65 30
M  V30 68 1 66 30
M  V30 69 1 22 67 CFG=1
M  V30 END BOND
M  V30 END CTAB
M  END
>  <i_epik_Tot_Q>  (1) 
1

>  <i_epik_Tot_abs_Q>  (1) 
1

>  <i_i_glide_confnum>  (1) 
59

>  <i_i_glide_lignum>  (1) 
109

>  <i_i_glide_posenum>  (1) 
80

>  <i_i_glide_rotatable_bonds>  (1) 
10

>  <i_lp_mmshare_version>  (1) 
72125

>  <i_m_source_file_index>  (1) 
68

>  <i_f3d_flags>  (1) 
0

>  <num_sample>  (1) 
100

>  <b_lp_Chiralities_Consistent>  (1) 
1

>  <r_epik_Charging_Adjusted_Penalty>  (1) 
0.0091991127420811905

>  <r_epik_Ionization_Penalty>  (1) 
0.0045995563710408641

>  <r_epik_Ionization_Penalty_Charging>  (1) 
0.0045995563710406013

>  <r_epik_Ionization_Penalty_Neutral>  (1) 
2.6311653613664267e-16

>  <r_epik_State_Penalty>  (1) 
0.0045995563710405883

>  <r_glide_ring_energy>  (1) 
0

>  <r_i_docking_score>  (1) 
-5.1831722982096968

>  <r_i_glide_ecoul>  (1) 
-5.1745785417150145

>  <r_i_glide_eff_state_penalty>  (1) 
0.0045995563710405883

>  <r_i_glide_einternal>  (1) 
3.8432695861018473

>  <r_i_glide_emodel>  (1) 
-41.941344626090178

>  <r_i_glide_emodel_strain>  (1) 
0.86320581633774651

>  <r_i_glide_energy>  (1) 
-31.917507188920819

>  <r_i_glide_erotb>  (1) 
0.77002039440311598

>  <r_i_glide_esite>  (1) 
-0.10000000000000001

>  <r_i_glide_evdw>  (1) 
-26.742928647205805

>  <r_i_glide_gscore>  (1) 
-5.1877718545807374

>  <r_i_glide_gscore_strain>  (1) 
0

>  <r_i_glide_hbond>  (1) 
-0.20000000000000001

>  <r_i_glide_ligand_efficiency>  (1) 
-0.17277240994032322

>  <r_i_glide_ligand_efficiency_ln>  (1) 
-1.1776732213387395

>  <r_i_glide_ligand_efficiency_sa>  (1) 
-0.53684404829855803

>  <r_i_glide_lipo>  (1) 
-1.6042161160847583

>  <r_i_glide_metal>  (1) 
-0

>  <r_i_glide_rewards>  (1) 
-1.9402429192815518

>  <r_lp_Energy>  (1) 
33.086953000000001

>  <r_lp_tautomer_probability>  (1) 
0.99990000499974985

>  <s_epik_cmdline>  (1) 
J2VwaWtfcHl0aG9uJywgJy1waHQnLCAnMS4wJywgJy1waCcsICc3LjQnLCAnLXRuJywgJzgnLCAnLW1hJywgJzUwMCcsICctaW1hZScsICc8aW5maWxlLm1hZT4nLCAnLW9tYWUnLCAnPG91dGZpbGUubWFlPic=

>  <s_epik_input>  (1) 
RltDSDJdW0NIXShbQ0gyXUYpYzFjKEYpW2NIXVtjSF1jKFtjSF0xKUMoPU8pW0NIMl1bQ0BASF0yW0NIMl1bQ0gyXVtDSDJdTjJbQ0gyXVtDSDJdW0NASF0oW0NIM10pW0NIXTNbQ0gyXVtDSDJdW0NIMl1bQ0gyXVtDSDJdMw==

>  <s_glide_docking_method>  (1) 
confgen

>  <s_i_glide_gridfile>  (1) 
gpcr_drd2_6luq_protein_autoprepared_prepared

>  <s_lp_Force_Field>  (1) 
S-OPLS

>  <s_lp_Variant>  (1) 
DiffSBDD_67-1

>  <s_m_source_file>  (1) 
generated_generic_title2_ligand_DiffSBDD_2026-06-23_prepared.sdf

>  <GenAI_Model>  (1) 
DiffSBDD

>  <Protein>  (1) 
generic_title2

$$$$
DiffSBDD_8
     RDKit          3D

  0  0  0  0  0  0  0  0  0  0999 V3000
M  V30 BEGIN CTAB
M  V30 COUNTS 61 63 0 0 1
M  V30 BEGIN ATOM
M  V30 1 C 9.699279 6.548296 -10.921221 0
M  V30 2 O 11.383263 8.846718 -7.004915 0
M  V30 3 C 6.929923 5.155417 -17.812838 0
M  V30 4 N 10.975127 6.706238 -7.505767 0
M  V30 5 C 6.937096 2.515970 -14.054415 0 CFG=2
M  V30 6 C 7.157333 5.283559 -14.994310 0
M  V30 7 N 12.179761 7.990778 -10.058523 0
M  V30 8 C 6.452151 -0.392510 -16.094239 0
M  V30 9 C 4.335111 0.389918 -14.957140 0
M  V30 10 O 5.897837 0.780963 -12.981925 0
M  V30 11 C 7.375461 4.030069 -17.096113 0
M  V30 12 C 7.795336 -0.040732 -16.752917 0
M  V30 13 O 7.856707 2.944129 -15.014208 0
M  V30 14 S 8.175508 7.010906 -13.185213 0
M  V30 15 C 7.505310 2.937307 -12.710302 0
M  V30 16 C 7.336311 5.402702 -13.454144 0 CFG=2
M  V30 17 N 8.460955 7.111415 -11.492276 0 CFG=2 CHG=1
M  V30 18 F 6.830517 5.101084 -19.161489 0
M  V30 19 C 6.540465 -0.316906 -12.365657 0
M  V30 20 C 8.986471 8.424531 -11.131371 0
M  V30 21 C 8.180328 4.294827 -12.796774 0
M  V30 22 C 9.703514 7.749366 -9.967553 0 CFG=2
M  V30 23 C 5.793891 0.761906 -15.334682 0 CFG=1
M  V30 24 N 6.643345 1.108655 -14.179254 0
M  V30 25 C 11.120534 7.988585 -7.843104 0
M  V30 26 C 6.575259 6.331426 -17.130568 0
M  V30 27 C 6.688934 6.398898 -15.729578 0
M  V30 28 C 7.472813 4.074147 -15.691091 0
M  V30 29 C 10.975535 8.358943 -9.329406 0 CFG=1
M  V30 30 H 9.593338 5.600724 -10.395311 0
M  V30 31 H 10.529380 6.526286 -11.630978 0
M  V30 32 H 11.043147 6.432728 -6.536755 0
M  V30 33 H 10.781090 6.015866 -8.215013 0
M  V30 34 H 5.995269 3.050802 -14.179938 0
M  V30 35 H 12.954662 8.584828 -9.789077 0
M  V30 36 H 12.460247 7.047051 -9.841548 0
M  V30 37 H 6.575508 -1.209762 -15.399889 0
M  V30 38 H 5.773844 -0.758412 -16.864904 0
M  V30 39 H 3.749742 0.147621 -15.842798 0
M  V30 40 H 4.321512 -0.488620 -14.329749 0
M  V30 41 H 3.811000 1.161175 -14.384679 0
M  V30 42 H 7.624832 3.122740 -17.623946 0
M  V30 43 H 8.208287 -0.909534 -17.264338 0
M  V30 44 H 7.677084 0.750290 -17.492203 0
M  V30 45 H 8.533211 0.288206 -16.021883 0
M  V30 46 H 6.690679 2.961906 -11.985071 0
M  V30 47 H 8.237184 2.195248 -12.387388 0
M  V30 48 H 6.350173 5.449734 -12.989781 0
M  V30 49 H 5.990884 -0.605721 -11.469622 0
M  V30 50 H 6.575378 -1.183635 -13.024734 0
M  V30 51 H 7.553556 -0.043586 -12.073489 0
M  V30 52 H 9.674330 8.790241 -11.895092 0
M  V30 53 H 8.236329 9.169892 -10.858074 0
M  V30 54 H 8.370250 4.533866 -11.759706 0
M  V30 55 H 9.157482 4.217497 -13.277043 0
M  V30 56 H 8.975731 7.558341 -9.176878 0
M  V30 57 H 5.775758 1.590222 -16.040285 0
M  V30 58 H 6.226610 7.189918 -17.684588 0
M  V30 59 H 6.428705 7.314189 -15.218785 0
M  V30 60 H 10.885519 9.444831 -9.375531 0
M  V30 61 H 7.659759 6.959854 -10.882348 0
M  V30 END ATOM
M  V30 BEGIN BOND
M  V30 1 2 11 3
M  V30 2 1 12 8
M  V30 3 1 13 5
M  V30 4 1 15 5
M  V30 5 1 16 6
M  V30 6 1 16 14
M  V30 7 1 17 1
M  V30 8 1 17 14
M  V30 9 1 18 3
M  V30 10 1 19 10
M  V30 11 1 20 17
M  V30 12 1 21 15
M  V30 13 1 21 16
M  V30 14 1 22 1
M  V30 15 1 22 20
M  V30 16 1 23 8
M  V30 17 1 23 9
M  V30 18 1 24 5
M  V30 19 1 24 10
M  V30 20 1 24 23
M  V30 21 2 25 2
M  V30 22 1 25 4
M  V30 23 1 26 3
M  V30 24 1 27 6
M  V30 25 2 27 26
M  V30 26 2 28 6
M  V30 27 1 28 11
M  V30 28 1 28 13
M  V30 29 1 29 7
M  V30 30 1 29 22
M  V30 31 1 29 25
M  V30 32 1 30 1
M  V30 33 1 31 1
M  V30 34 1 32 4
M  V30 35 1 33 4
M  V30 36 1 5 34 CFG=3
M  V30 37 1 35 7
M  V30 38 1 36 7
M  V30 39 1 37 8
M  V30 40 1 38 8
M  V30 41 1 39 9
M  V30 42 1 40 9
M  V30 43 1 41 9
M  V30 44 1 42 11
M  V30 45 1 43 12
M  V30 46 1 44 12
M  V30 47 1 45 12
M  V30 48 1 46 15
M  V30 49 1 47 15
M  V30 50 1 16 48 CFG=1
M  V30 51 1 49 19
M  V30 52 1 50 19
M  V30 53 1 51 19
M  V30 54 1 52 20
M  V30 55 1 53 20
M  V30 56 1 54 21
M  V30 57 1 55 21
M  V30 58 1 22 56 CFG=1
M  V30 59 1 23 57 CFG=3
M  V30 60 1 58 26
M  V30 61 1 59 27
M  V30 62 1 29 60 CFG=1
M  V30 63 1 17 61 CFG=1
M  V30 END BOND
M  V30 END CTAB
M  END
>  <i_epik_Tot_Q>  (1) 
1

>  <i_epik_Tot_abs_Q>  (1) 
1

>  <i_i_glide_confnum>  (1) 
22

>  <i_i_glide_lignum>  (1) 
12

>  <i_i_glide_posenum>  (1) 
348

>  <i_i_glide_rotatable_bonds>  (1) 
8

>  <i_lp_mmshare_version>  (1) 
72125

>  <i_m_source_file_index>  (1) 
9

>  <i_f3d_flags>  (1) 
0

>  <num_sample>  (1) 
100

>  <b_lp_Chiralities_Consistent>  (1) 
1

>  <r_epik_Charging_Adjusted_Penalty>  (1) 
0.26758124344448359

>  <r_epik_Ionization_Penalty>  (1) 
0.27573061112751834

>  <r_epik_Ionization_Penalty_Charging>  (1) 
0.017350130917063531

>  <r_epik_Ionization_Penalty_Neutral>  (1) 
0.25838048021045479

>  <r_epik_State_Penalty>  (1) 
0.25023111252742003

>  <r_glide_ring_energy>  (1) 
0

>  <r_i_docking_score>  (1) 
-5.1753989078691855

>  <r_i_glide_ecoul>  (1) 
-7.2279352745020526

>  <r_i_glide_eff_state_penalty>  (1) 
0.25023111252742003

>  <r_i_glide_einternal>  (1) 
14.785604487499313

>  <r_i_glide_emodel>  (1) 
-41.671219008091576

>  <r_i_glide_emodel_strain>  (1) 
3.5930027790951513

>  <r_i_glide_energy>  (1) 
-37.236127457352488

>  <r_i_glide_erotb>  (1) 
0.54307168116637361

>  <r_i_glide_esite>  (1) 
-0.10000000000000001

>  <r_i_glide_evdw>  (1) 
-30.008192182850436

>  <r_i_glide_gscore>  (1) 
-5.4256300203966052

>  <r_i_glide_gscore_strain>  (1) 
0

>  <r_i_glide_hbond>  (1) 
-0.14176285860397331

>  <r_i_glide_ligand_efficiency>  (1) 
-0.17846203130583399

>  <r_i_glide_ligand_efficiency_ln>  (1) 
-1.1850351131091601

>  <r_i_glide_ligand_efficiency_sa>  (1) 
-0.54829190152698826

>  <r_i_glide_lipo>  (1) 
-1.2529801431707095

>  <r_i_glide_metal>  (1) 
-0

>  <r_i_glide_rewards>  (1) 
-1.8893587994704655

>  <r_lp_Energy>  (1) 
41.451684999999998

>  <r_lp_tautomer_probability>  (1) 
1

>  <s_epik_Chemistry_Notes>  (1) 
This compound contains an acetal/aminal-like group ( X-CH(R)-Y where X, Y are N, S, or O) that may be acid/base labile, releasing an aldehyde. This compound has a N-S or N-O group and may undergo hydrolysis at high or low pH.

>  <s_epik_cmdline>  (1) 
J2VwaWtfcHl0aG9uJywgJy1waHQnLCAnMS4wJywgJy1waCcsICc3LjQnLCAnLXRuJywgJzgnLCAnLW1hJywgJzUwMCcsICctaW1hZScsICc8aW5maWxlLm1hZT4nLCAnLW9tYWUnLCAnPG91dGZpbGUubWFlPic=

>  <s_epik_input>  (1) 
Tz1DKFtOSDJdKVtDQEBIXShbTkgyXSlbQ0hdKFtDSDJdMSlbQ0gyXU4xU1tDQEBIXTJbQ0gyXVtDSDJdW0NASF0oTihPW0NIM10pW0NASF0oW0NIM10pW0NIMl1bQ0gzXSlPYyhjMjMpW2NIXWMoRilbY0hdW2NIXTM=

>  <s_glide_docking_method>  (1) 
confgen

>  <s_i_glide_gridfile>  (1) 
gpcr_drd2_6luq_protein_autoprepared_prepared

>  <s_lp_Force_Field>  (1) 
S-OPLS

>  <s_lp_Variant>  (1) 
DiffSBDD_8-2

>  <s_m_source_file>  (1) 
generated_generic_title2_ligand_DiffSBDD_2026-06-23_prepared.sdf

>  <GenAI_Model>  (1) 
DiffSBDD

>  <Protein>  (1) 
generic_title2

$$$$
DiffSBDD_78
     RDKit          3D

  0  0  0  0  0  0  0  0  0  0999 V3000
M  V30 BEGIN CTAB
M  V30 COUNTS 81 85 0 0 1
M  V30 BEGIN ATOM
M  V30 1 C 12.653174 6.976800 -18.428011 0 CFG=2
M  V30 2 C 11.411929 6.841060 -19.330208 0
M  V30 3 C 6.071470 3.652778 -12.784048 0 CFG=1
M  V30 4 C 7.990489 5.438010 -12.018786 0 CFG=2
M  V30 5 C 13.947881 6.686822 -19.214008 0
M  V30 6 N 8.975412 7.381841 -10.785032 0 CHG=1
M  V30 7 C 6.618657 5.999655 -12.479487 0 CFG=1
M  V30 8 C 7.084265 4.929919 -14.769272 0 CFG=1
M  V30 9 N 12.692399 6.026745 -17.288105 0 CFG=2 CHG=1
M  V30 10 C 13.422766 4.827826 -17.737172 0
M  V30 11 N 8.136089 5.286765 -15.806954 0 CFG=2 CHG=1
M  V30 12 C 7.558450 2.329257 -14.221503 0
M  V30 13 C 9.099431 6.499790 -11.969264 0
M  V30 14 C 9.562582 7.621039 -8.426200 0
M  V30 15 O 8.367230 4.310813 -12.855436 0
M  V30 16 C 7.507391 5.555356 -17.126752 0
M  V30 17 C 10.677656 7.493580 -7.375544 0 CFG=1
M  V30 18 C 4.709076 4.197860 -13.119529 0
M  V30 19 C 7.316167 3.779035 -13.690543 0 CFG=2
M  V30 20 F 11.023269 6.209250 -7.291262 0
M  V30 21 C 14.525689 5.386477 -18.633829 0
M  V30 22 C 8.063884 1.308056 -13.191739 0
M  V30 23 O 11.124830 8.160545 -10.137874 0
M  V30 24 C 6.678798 6.237093 -14.013767 0
M  V30 25 C 11.923503 8.300210 -7.805260 0 CFG=1
M  V30 26 C 10.467151 4.783882 -16.917130 0
M  V30 27 C 10.178882 7.210954 -9.769864 0 CFG=2
M  V30 28 C 11.478527 5.843003 -16.443723 0
M  V30 29 C 9.352820 4.432464 -15.902737 0
M  V30 30 C 10.188715 7.877284 -5.975354 0
M  V30 31 C 12.276495 8.131292 -9.302065 0
M  V30 32 C 5.610568 4.921799 -12.135078 0 CFG=1
M  V30 33 F 11.775400 9.590205 -7.523760 0
M  V30 34 H 12.679809 7.990559 -18.028204 0
M  V30 35 H 11.471557 7.537189 -20.167714 0
M  V30 36 H 11.325509 5.838394 -19.749732 0
M  V30 37 H 10.489816 7.072194 -18.799471 0
M  V30 38 H 6.096439 2.818648 -12.089152 0
M  V30 39 H 7.882820 5.033608 -11.009792 0
M  V30 40 H 14.664281 7.502186 -19.101353 0
M  V30 41 H 13.754943 6.583533 -20.283267 0
M  V30 42 H 8.950845 8.342333 -11.093018 0
M  V30 43 H 6.352692 6.914832 -11.947872 0
M  V30 44 H 6.220178 4.589419 -15.338346 0
M  V30 45 H 13.814384 4.246979 -16.901009 0
M  V30 46 H 12.775457 4.182649 -18.332434 0
M  V30 47 H 8.268408 2.242057 -15.016777 0
M  V30 48 H 6.630711 1.959787 -14.659524 0
M  V30 49 H 10.073182 6.008028 -11.967175 0
M  V30 50 H 9.090905 7.127663 -12.853418 0
M  V30 51 H 9.178793 8.641577 -8.481321 0
M  V30 52 H 8.737136 6.949573 -8.180373 0
M  V30 53 H 7.176090 4.628450 -17.597130 0
M  V30 54 H 6.637795 6.205230 -17.014367 0
M  V30 55 H 8.183566 6.063738 -17.811512 0
M  V30 56 H 3.859439 3.613309 -12.785013 0
M  V30 57 H 4.492539 4.792618 -13.985012 0
M  V30 58 H 15.410772 5.610437 -18.036881 0
M  V30 59 H 14.822468 4.678755 -19.409275 0
M  V30 60 H 8.253931 0.348599 -13.674618 0
M  V30 61 H 7.359944 1.113412 -12.385033 0
M  V30 62 H 9.008230 1.641317 -12.765436 0
M  V30 63 H 5.718517 6.605598 -14.377468 0
M  V30 64 H 7.373550 7.048203 -14.230161 0
M  V30 65 H 12.774890 8.002571 -7.204353 0
M  V30 66 H 11.019872 3.853701 -17.045574 0
M  V30 67 H 10.066977 4.996661 -17.904271 0
M  V30 68 H 10.556577 6.190615 -9.751738 0
M  V30 69 H 10.975394 6.790233 -16.353466 0
M  V30 70 H 11.825347 5.590252 -15.442453 0
M  V30 71 H 9.795068 4.390224 -14.908769 0
M  V30 72 H 9.036620 3.468563 -16.273511 0
M  V30 73 H 9.825116 8.904324 -5.951715 0
M  V30 74 H 9.375379 7.225481 -5.660579 0
M  V30 75 H 10.986114 7.781517 -5.237290 0
M  V30 76 H 12.786603 7.190234 -9.482338 0
M  V30 77 H 12.974145 8.906590 -9.616223 0
M  V30 78 H 5.346307 4.857212 -11.080274 0
M  V30 79 H 13.348576 6.472447 -16.661330 0
M  V30 80 H 8.489964 6.179760 -15.497409 0
M  V30 81 H 8.083264 7.251501 -10.287792 0
M  V30 END ATOM
M  V30 BEGIN BOND
M  V30 1 1 2 1
M  V30 2 1 5 1
M  V30 3 1 7 4
M  V30 4 1 9 1
M  V30 5 1 10 9
M  V30 6 1 11 8
M  V30 7 1 13 4
M  V30 8 1 13 6
M  V30 9 1 15 4
M  V30 10 1 16 11
M  V30 11 1 17 14
M  V30 12 1 18 3
M  V30 13 1 19 3
M  V30 14 1 19 8
M  V30 15 1 19 12 CFG=3
M  V30 16 1 19 15
M  V30 17 1 17 20 CFG=1
M  V30 18 1 21 5
M  V30 19 1 21 10
M  V30 20 1 22 12
M  V30 21 1 24 7
M  V30 22 1 24 8
M  V30 23 1 25 17
M  V30 24 1 27 6
M  V30 25 1 27 14
M  V30 26 1 27 23
M  V30 27 1 28 9
M  V30 28 1 28 26
M  V30 29 1 29 11
M  V30 30 1 29 26
M  V30 31 1 30 17
M  V30 32 1 31 23
M  V30 33 1 31 25
M  V30 34 1 32 3
M  V30 35 1 32 7
M  V30 36 1 32 18
M  V30 37 1 33 25
M  V30 38 1 1 34 CFG=1
M  V30 39 1 35 2
M  V30 40 1 36 2
M  V30 41 1 37 2
M  V30 42 1 3 38 CFG=1
M  V30 43 1 4 39 CFG=1
M  V30 44 1 40 5
M  V30 45 1 41 5
M  V30 46 1 42 6
M  V30 47 1 7 43 CFG=1
M  V30 48 1 8 44 CFG=3
M  V30 49 1 45 10
M  V30 50 1 46 10
M  V30 51 1 47 12
M  V30 52 1 48 12
M  V30 53 1 49 13
M  V30 54 1 50 13
M  V30 55 1 51 14
M  V30 56 1 52 14
M  V30 57 1 53 16
M  V30 58 1 54 16
M  V30 59 1 55 16
M  V30 60 1 56 18
M  V30 61 1 57 18
M  V30 62 1 58 21
M  V30 63 1 59 21
M  V30 64 1 60 22
M  V30 65 1 61 22
M  V30 66 1 62 22
M  V30 67 1 63 24
M  V30 68 1 64 24
M  V30 69 1 25 65 CFG=1
M  V30 70 1 66 26
M  V30 71 1 67 26
M  V30 72 1 27 68 CFG=1
M  V30 73 1 69 28
M  V30 74 1 70 28
M  V30 75 1 71 29
M  V30 76 1 72 29
M  V30 77 1 73 30
M  V30 78 1 74 30
M  V30 79 1 75 30
M  V30 80 1 76 31
M  V30 81 1 77 31
M  V30 82 1 32 78 CFG=1
M  V30 83 1 9 79 CFG=1
M  V30 84 1 11 80 CFG=1
M  V30 85 1 81 6
M  V30 END BOND
M  V30 END CTAB
M  END
>  <i_epik_Tot_Q>  (1) 
3

>  <i_epik_Tot_abs_Q>  (1) 
3

>  <i_i_glide_confnum>  (1) 
302

>  <i_i_glide_lignum>  (1) 
133

>  <i_i_glide_posenum>  (1) 
76

>  <i_i_glide_rotatable_bonds>  (1) 
9

>  <i_lp_mmshare_version>  (1) 
72125

>  <i_m_source_file_index>  (1) 
79

>  <i_f3d_flags>  (1) 
0

>  <num_sample>  (1) 
100

>  <b_lp_Chiralities_Consistent>  (1) 
1

>  <r_epik_Charging_Adjusted_Penalty>  (1) 
1.7942086838225126

>  <r_epik_Ionization_Penalty>  (1) 
0.94562311220168549

>  <r_epik_Ionization_Penalty_Charging>  (1) 
0.94562311220168382

>  <r_epik_Ionization_Penalty_Neutral>  (1) 
1.710257484888175e-15

>  <r_epik_State_Penalty>  (1) 
0.84858557162082893

>  <r_glide_ring_energy>  (1) 
0

>  <r_i_docking_score>  (1) 
-5.1737750194711234

>  <r_i_glide_ecoul>  (1) 
-10.674091499682138

>  <r_i_glide_eff_state_penalty>  (1) 
0.84858557162082893

>  <r_i_glide_einternal>  (1) 
11.687930506659427

>  <r_i_glide_emodel>  (1) 
-41.901733842582416

>  <r_i_glide_emodel_strain>  (1) 
3.4624287323592142

>  <r_i_glide_energy>  (1) 
-36.53602205491061

>  <r_i_glide_erotb>  (1) 
0.72404097212868179

>  <r_i_glide_esite>  (1) 
-0.16152119879124519

>  <r_i_glide_evdw>  (1) 
-25.861930555228472

>  <r_i_glide_gscore>  (1) 
-6.0223605910919522

>  <r_i_glide_gscore_strain>  (1) 
0

>  <r_i_glide_hbond>  (1) 
-0.19553387634432196

>  <r_i_glide_ligand_efficiency>  (1) 
-0.15678106119609464

>  <r_i_glide_ligand_efficiency_ln>  (1) 
-1.15062077595701

>  <r_i_glide_ligand_efficiency_sa>  (1) 
-0.50288063607965017

>  <r_i_glide_lipo>  (1) 
-2.1897368783381679

>  <r_i_glide_metal>  (1) 
-0

>  <r_i_glide_rewards>  (1) 
-1.3053993570331544

>  <r_lp_Energy>  (1) 
78.433422999999991

>  <s_epik_Chemistry_Notes>  (1) 
This compound contains an acetal/aminal-like group ( X-CH(R)-Y where X, Y are N, S, or O) that may be acid/base labile, releasing an aldehyde.

>  <s_epik_cmdline>  (1) 
J2VwaWtfcHl0aG9uJywgJy1waHQnLCAnMS4wJywgJy1waCcsICc3LjQnLCAnLXRuJywgJzgnLCAnLW1hJywgJzUwMCcsICctaW1hZScsICc8aW5maWxlLm1hZT4nLCAnLW9tYWUnLCAnPG91dGZpbGUubWFlPic=

>  <s_epik_input>  (1) 
W0NIM11bQ0BASF0xW0NIMl1bQ0gyXVtDSDJdTjFbQ0gyXVtDSDJdW0NIMl1OKFtDSDNdKVtDQEBIXTJbQ0gyXVtDQEBIXShbQ0BASF0oW0NIMl0zKVtDQEBIXTNbQ0BAXTI0W0NIMl1bQ0gzXSlbQ0BASF0oTzQpW0NIMl1bTkhdW0NASF0oW0NIMl1bQ0BdNShGKVtDSDNdKU9bQ0gyXVtDQEhdNUY=

>  <s_glide_docking_method>  (1) 
confgen

>  <s_i_glide_gridfile>  (1) 
gpcr_drd2_6luq_protein_autoprepared_prepared

>  <s_lp_Force_Field>  (1) 
S-OPLS

>  <s_lp_Variant>  (1) 
DiffSBDD_78-5

>  <s_m_source_file>  (1) 
generated_generic_title2_ligand_DiffSBDD_2026-06-23_prepared.sdf

>  <GenAI_Model>  (1) 
DiffSBDD

>  <Protein>  (1) 
generic_title2

$$$$
DiffSBDD_64
     RDKit          3D

  0  0  0  0  0  0  0  0  0  0999 V3000
M  V30 BEGIN CTAB
M  V30 COUNTS 77 80 0 0 1
M  V30 BEGIN ATOM
M  V30 1 C 5.946350 5.661127 -16.724880 0
M  V30 2 C 10.669299 8.436511 -9.116060 0
M  V30 3 C 6.400745 5.760789 -19.171419 0 CFG=2
M  V30 4 C 6.398669 6.133324 -11.953851 0
M  V30 5 C 10.312355 7.280744 -5.584100 0
M  V30 6 C 8.279122 6.669524 -20.708460 0
M  V30 7 C 6.576796 7.267741 -12.966579 0 CFG=1
M  V30 8 O 12.575316 8.130230 -7.786415 0
M  V30 9 C 8.528100 4.614624 -19.248061 0
M  V30 10 C 5.566519 6.995819 -19.559616 0
M  V30 11 C 7.745813 5.620632 -11.420986 0
M  V30 12 C 11.034902 8.593922 -5.326689 0
M  V30 13 C 10.897657 9.267871 -6.679602 0
M  V30 14 C 9.104914 4.842765 -16.778524 0
M  V30 15 N 6.975448 5.791447 -17.799942 0 CFG=2 CHG=1
M  V30 16 C 5.663307 8.133448 -16.300606 0
M  V30 17 C 11.173545 8.156679 -7.692712 0 CFG=1
M  V30 18 C 7.571509 5.437738 -20.115359 0 CFG=1
M  V30 19 C 7.983061 4.691237 -17.815555 0 CFG=1
M  V30 20 C 7.486099 8.358213 -12.381012 0
M  V30 21 C 8.790880 7.794999 -11.839336 0
M  V30 22 C 10.962306 7.270517 -10.083633 0
M  V30 23 C 9.601670 5.421007 -8.901764 0
M  V30 24 C 9.360277 6.256393 -7.646778 0
M  V30 25 C 10.639207 6.860936 -7.020918 0 CFG=2
M  V30 26 S 7.263833 6.671057 -14.530534 0
M  V30 27 N 8.575397 6.717063 -10.836869 0 CFG=2 CHG=1
M  V30 28 C 9.828857 6.214140 -10.211498 0 CFG=1
M  V30 29 C 5.860780 6.763079 -15.673164 0 CFG=2
M  V30 30 H 6.175588 4.788153 -16.134719 0
M  V30 31 H 4.950377 5.585849 -17.162989 0
M  V30 32 H 9.605829 8.677655 -9.101230 0
M  V30 33 H 11.162132 9.336058 -9.487919 0
M  V30 34 H 5.731836 4.897538 -19.213765 0
M  V30 35 H 5.836490 5.313405 -12.402608 0
M  V30 36 H 5.791620 6.488211 -11.122060 0
M  V30 37 H 10.517899 6.510176 -4.840444 0
M  V30 38 H 9.248061 7.501643 -5.584263 0
M  V30 39 H 8.638560 7.341498 -19.928259 0
M  V30 40 H 9.137201 6.367843 -21.309751 0
M  V30 41 H 7.617884 7.236543 -21.363423 0
M  V30 42 H 5.588639 7.671617 -13.175912 0
M  V30 43 H 12.825895 7.573031 -8.503427 0
M  V30 44 H 9.545765 5.005695 -19.305617 0
M  V30 45 H 8.571303 3.577633 -19.585641 0
M  V30 46 H 5.280141 6.944222 -20.611013 0
M  V30 47 H 4.642423 7.054141 -18.986275 0
M  V30 48 H 6.113639 7.923729 -19.412412 0
M  V30 49 H 8.298921 5.130221 -12.225520 0
M  V30 50 H 7.528358 4.849281 -10.685352 0
M  V30 51 H 12.081917 8.423303 -5.074541 0
M  V30 52 H 10.589450 9.185764 -4.529346 0
M  V30 53 H 11.542629 10.139915 -6.783060 0
M  V30 54 H 9.864651 9.590164 -6.785480 0
M  V30 55 H 9.880260 4.092713 -16.942478 0
M  V30 56 H 9.577266 5.822945 -16.834645 0
M  V30 57 H 8.738650 4.688209 -15.765524 0
M  V30 58 H 4.864860 8.130072 -17.038091 0
M  V30 59 H 5.409089 8.897285 -15.583628 0
M  V30 60 H 6.575744 8.427268 -16.784995 0
M  V30 61 H 7.205059 4.828724 -20.944800 0
M  V30 62 H 7.463688 3.747787 -17.632395 0
M  V30 63 H 7.775481 9.092242 -13.134099 0
M  V30 64 H 6.966564 8.893744 -11.585019 0
M  V30 65 H 9.299634 8.650495 -11.403374 0
M  V30 66 H 9.417365 7.423487 -12.650398 0
M  V30 67 H 11.886217 6.790149 -9.778670 0
M  V30 68 H 11.225793 7.664487 -11.062834 0
M  V30 69 H 10.461839 4.786229 -8.707205 0
M  V30 70 H 8.776911 4.720624 -9.003007 0
M  V30 71 H 8.913000 5.590426 -6.909655 0
M  V30 72 H 8.600064 7.018388 -7.820419 0
M  V30 73 H 11.421883 6.100683 -6.988481 0
M  V30 74 H 10.175073 5.487939 -10.946903 0
M  V30 75 H 4.975471 6.540598 -15.079669 0
M  V30 76 H 7.983721 7.154817 -10.109873 0
M  V30 77 H 7.472264 6.663659 -17.689196 0
M  V30 END ATOM
M  V30 BEGIN BOND
M  V30 1 1 7 4
M  V30 2 1 10 3
M  V30 3 1 11 4
M  V30 4 1 12 5
M  V30 5 1 13 12
M  V30 6 1 15 1
M  V30 7 1 15 3
M  V30 8 1 17 2
M  V30 9 1 17 8 CFG=3
M  V30 10 1 17 13
M  V30 11 1 18 3
M  V30 12 1 18 6
M  V30 13 1 18 9
M  V30 14 1 19 9
M  V30 15 1 19 14
M  V30 16 1 19 15
M  V30 17 1 20 7
M  V30 18 1 21 20
M  V30 19 1 22 2
M  V30 20 1 24 23
M  V30 21 1 25 5
M  V30 22 1 25 17
M  V30 23 1 25 24
M  V30 24 1 26 7
M  V30 25 1 27 11
M  V30 26 1 27 21
M  V30 27 1 28 22
M  V30 28 1 28 23
M  V30 29 1 28 27
M  V30 30 1 29 1
M  V30 31 1 29 16
M  V30 32 1 29 26
M  V30 33 1 30 1
M  V30 34 1 31 1
M  V30 35 1 32 2
M  V30 36 1 33 2
M  V30 37 1 3 34 CFG=1
M  V30 38 1 35 4
M  V30 39 1 36 4
M  V30 40 1 37 5
M  V30 41 1 38 5
M  V30 42 1 39 6
M  V30 43 1 40 6
M  V30 44 1 41 6
M  V30 45 1 7 42 CFG=3
M  V30 46 1 43 8
M  V30 47 1 44 9
M  V30 48 1 45 9
M  V30 49 1 46 10
M  V30 50 1 47 10
M  V30 51 1 48 10
M  V30 52 1 49 11
M  V30 53 1 50 11
M  V30 54 1 51 12
M  V30 55 1 52 12
M  V30 56 1 53 13
M  V30 57 1 54 13
M  V30 58 1 55 14
M  V30 59 1 56 14
M  V30 60 1 57 14
M  V30 61 1 58 16
M  V30 62 1 59 16
M  V30 63 1 60 16
M  V30 64 1 18 61 CFG=3
M  V30 65 1 19 62 CFG=1
M  V30 66 1 63 20
M  V30 67 1 64 20
M  V30 68 1 65 21
M  V30 69 1 66 21
M  V30 70 1 67 22
M  V30 71 1 68 22
M  V30 72 1 69 23
M  V30 73 1 70 23
M  V30 74 1 71 24
M  V30 75 1 72 24
M  V30 76 1 25 73 CFG=1
M  V30 77 1 28 74 CFG=3
M  V30 78 1 29 75 CFG=1
M  V30 79 1 27 76 CFG=1
M  V30 80 1 15 77 CFG=1
M  V30 END BOND
M  V30 END CTAB
M  END
>  <i_epik_Tot_Q>  (1) 
2

>  <i_epik_Tot_abs_Q>  (1) 
2

>  <i_i_glide_confnum>  (1) 
47

>  <i_i_glide_lignum>  (1) 
103

>  <i_i_glide_posenum>  (1) 
49

>  <i_i_glide_rotatable_bonds>  (1) 
6

>  <i_lp_mmshare_version>  (1) 
72125

>  <i_m_source_file_index>  (1) 
65

>  <i_f3d_flags>  (1) 
0

>  <num_sample>  (1) 
100

>  <b_lp_Chiralities_Consistent>  (1) 
1

>  <r_epik_Charging_Adjusted_Penalty>  (1) 
0.010385271147369776

>  <r_epik_Ionization_Penalty>  (1) 
0.010385491156522124

>  <r_epik_Ionization_Penalty_Charging>  (1) 
0.010385271147369776

>  <r_epik_Ionization_Penalty_Neutral>  (1) 
2.2000915234807092e-07

>  <r_epik_State_Penalty>  (1) 
-0

>  <r_glide_ring_energy>  (1) 
0

>  <r_i_docking_score>  (1) 
-5.172508093035538

>  <r_i_glide_ecoul>  (1) 
-7.0420237647290556

>  <r_i_glide_eff_state_penalty>  (1) 
-0

>  <r_i_glide_einternal>  (1) 
3.689555499496171

>  <r_i_glide_emodel>  (1) 
-37.816183293909525

>  <r_i_glide_emodel_strain>  (1) 
0.75208549355087939

>  <r_i_glide_energy>  (1) 
-30.368945019217122

>  <r_i_glide_erotb>  (1) 
0.5496323063178965

>  <r_i_glide_esite>  (1) 
-0.10000000000000001

>  <r_i_glide_evdw>  (1) 
-23.326921254488067

>  <r_i_glide_gscore>  (1) 
-5.172508093035538

>  <r_i_glide_gscore_strain>  (1) 
0

>  <r_i_glide_hbond>  (1) 
-0.15557067303548183

>  <r_i_glide_ligand_efficiency>  (1) 
-0.17836234803570822

>  <r_i_glide_ligand_efficiency_ln>  (1) 
-1.1843731898169942

>  <r_i_glide_ligand_efficiency_sa>  (1) 
-0.54798564293894148

>  <r_i_glide_lipo>  (1) 
-2.2191278133065491

>  <r_i_glide_metal>  (1) 
-0

>  <r_i_glide_rewards>  (1) 
-1.0247922855776423

>  <r_lp_Energy>  (1) 
51.013120000000001

>  <r_lp_tautomer_probability>  (1) 
1

>  <s_epik_cmdline>  (1) 
J2VwaWtfcHl0aG9uJywgJy1waHQnLCAnMS4wJywgJy1waCcsICc3LjQnLCAnLXRuJywgJzgnLCAnLW1hJywgJzUwMCcsICctaW1hZScsICc8aW5maWxlLm1hZT4nLCAnLW9tYWUnLCAnPG91dGZpbGUubWFlPic=

>  <s_epik_input>  (1) 
W0NIM11bQ0BIXTFbQ0gyXVtDQEBIXShbQ0gzXSlOKFtDQEhdMVtDSDNdKVtDSDJdW0NASF0oW0NIM10pU1tDSF0yW0NIMl1bQ0gyXU4oW0NIMl1bQ0gyXTIpW0NAQEhdKFtDSDJdW0NIMl0zKVtDSDJdW0NIMl1bQ0BASF0oW0NAQF0zNFtPSF0pW0NIMl1bQ0gyXVtDSDJdNA==

>  <s_glide_docking_method>  (1) 
confgen

>  <s_i_glide_gridfile>  (1) 
gpcr_drd2_6luq_protein_autoprepared_prepared

>  <s_lp_Force_Field>  (1) 
S-OPLS

>  <s_lp_Variant>  (1) 
DiffSBDD_64-2

>  <s_m_source_file>  (1) 
generated_generic_title2_ligand_DiffSBDD_2026-06-23_prepared.sdf

>  <GenAI_Model>  (1) 
DiffSBDD

>  <Protein>  (1) 
generic_title2

$$$$
DiffSBDD_22
     RDKit          3D

  0  0  0  0  0  0  0  0  0  0999 V3000
M  V30 BEGIN CTAB
M  V30 COUNTS 28 29 0 0 1
M  V30 BEGIN ATOM
M  V30 1 C 9.787355 6.718471 -8.459278 0 CFG=1
M  V30 2 N 9.775410 7.816054 -9.407453 0
M  V30 3 C 11.909270 7.789291 -10.628746 0
M  V30 4 C 12.415613 9.190228 -3.508369 0
M  V30 5 C 9.837936 6.968464 -6.972454 0 CFG=2
M  V30 6 C 11.650042 9.470664 -4.612573 0
M  V30 7 C 10.409560 7.473785 -10.670956 0
M  V30 8 C 10.134038 8.332826 -6.384946 0
M  V30 9 C 11.038372 8.302556 -5.185025 0
M  V30 10 O 8.855575 5.732701 -8.838492 0
M  V30 11 C 10.975411 6.254068 -7.674344 0
M  V30 12 S 12.404577 7.505320 -3.142789 0
M  V30 13 C 11.375411 7.156808 -4.492533 0
M  V30 14 H 8.789391 8.019468 -9.585025 0
M  V30 15 H 12.362392 7.590229 -11.599080 0
M  V30 16 H 12.085778 8.837468 -10.384104 0
M  V30 17 H 12.438366 7.190237 -9.893050 0
M  V30 18 H 12.975410 9.875438 -2.889750 0
M  V30 19 H 9.198402 6.346176 -6.348043 0
M  V30 20 H 11.501333 10.458385 -5.024120 0
M  V30 21 H 10.220972 6.433924 -10.942135 0
M  V30 22 H 9.947360 8.082647 -11.448267 0
M  V30 23 H 10.577491 8.967397 -7.152178 0
M  V30 24 H 9.179791 8.790231 -6.126446 0
M  V30 25 H 7.990791 6.128174 -8.787642 0
M  V30 26 H 11.077258 5.190227 -7.494409 0
M  V30 27 H 11.905323 6.810636 -7.736765 0
M  V30 28 H 11.066413 6.139141 -4.689491 0
M  V30 END ATOM
M  V30 BEGIN BOND
M  V30 1 1 2 1
M  V30 2 1 5 1
M  V30 3 2 6 4
M  V30 4 1 7 2
M  V30 5 1 7 3
M  V30 6 1 8 5
M  V30 7 1 9 6
M  V30 8 1 9 8
M  V30 9 1 1 10 CFG=1
M  V30 10 1 11 1
M  V30 11 1 11 5
M  V30 12 1 12 4
M  V30 13 2 13 9
M  V30 14 1 13 12
M  V30 15 1 14 2
M  V30 16 1 15 3
M  V30 17 1 16 3
M  V30 18 1 17 3
M  V30 19 1 18 4
M  V30 20 1 5 19 CFG=1
M  V30 21 1 20 6
M  V30 22 1 21 7
M  V30 23 1 22 7
M  V30 24 1 23 8
M  V30 25 1 24 8
M  V30 26 1 25 10
M  V30 27 1 26 11
M  V30 28 1 27 11
M  V30 29 1 28 13
M  V30 END BOND
M  V30 END CTAB
M  END
>  <i_epik_Tot_Q>  (1) 
0

>  <i_epik_Tot_abs_Q>  (1) 
0

>  <i_i_glide_confnum>  (1) 
19

>  <i_i_glide_lignum>  (1) 
39

>  <i_i_glide_posenum>  (1) 
232

>  <i_i_glide_rotatable_bonds>  (1) 
5

>  <i_lp_mmshare_version>  (1) 
72125

>  <i_m_source_file_index>  (1) 
23

>  <i_f3d_flags>  (1) 
0

>  <num_sample>  (1) 
100

>  <b_lp_Chiralities_Consistent>  (1) 
1

>  <r_epik_Charging_Adjusted_Penalty>  (1) 
0.22588015367331185

>  <r_epik_Ionization_Penalty>  (1) 
0.22588404023765496

>  <r_epik_Ionization_Penalty_Charging>  (1) 
0

>  <r_epik_Ionization_Penalty_Neutral>  (1) 
0.22588404023765496

>  <r_epik_State_Penalty>  (1) 
0.22588015367331185

>  <r_glide_ring_energy>  (1) 
0

>  <r_i_docking_score>  (1) 
-5.1693663844853219

>  <r_i_glide_ecoul>  (1) 
-6.2780718944971179

>  <r_i_glide_eff_state_penalty>  (1) 
0.22588015367331185

>  <r_i_glide_einternal>  (1) 
5.4329676385438264

>  <r_i_glide_emodel>  (1) 
-37.269298241433802

>  <r_i_glide_emodel_strain>  (1) 
1.2774703552236168

>  <r_i_glide_energy>  (1) 
-30.3003761931664

>  <r_i_glide_erotb>  (1) 
1.2530290316507966

>  <r_i_glide_esite>  (1) 
-0.078057011854536118

>  <r_i_glide_evdw>  (1) 
-24.022304298669283

>  <r_i_glide_gscore>  (1) 
-5.3952465381586334

>  <r_i_glide_gscore_strain>  (1) 
0

>  <r_i_glide_hbond>  (1) 
-0.26373099510895387

>  <r_i_glide_ligand_efficiency>  (1) 
-0.39764356803733247

>  <r_i_glide_ligand_efficiency_ln>  (1) 
-1.4500532451227381

>  <r_i_glide_ligand_efficiency_sa>  (1) 
-0.93499311487522907

>  <r_i_glide_lipo>  (1) 
-1.8596170739515285

>  <r_i_glide_metal>  (1) 
-0

>  <r_i_glide_rewards>  (1) 
-2.3040444897863783

>  <r_lp_Energy>  (1) 
-2.963994

>  <s_epik_cmdline>  (1) 
J2VwaWtfcHl0aG9uJywgJy1waHQnLCAnMS4wJywgJy1waCcsICc3LjQnLCAnLXRuJywgJzgnLCAnLW1hJywgJzUwMCcsICctaW1hZScsICc8aW5maWxlLm1hZT4nLCAnLW9tYWUnLCAnPG91dGZpbGUubWFlPic=

>  <s_epik_input>  (1) 
W0NIM11bQ0gyXVtOSF1bQ0BdMShbT0hdKVtDQEBIXShbQ0gyXTEpW0NIMl1jMltjSF1bY0hdc1tjSF0y

>  <s_glide_docking_method>  (1) 
confgen

>  <s_i_glide_gridfile>  (1) 
gpcr_drd2_6luq_protein_autoprepared_prepared

>  <s_lp_Force_Field>  (1) 
S-OPLS

>  <s_lp_Variant>  (1) 
DiffSBDD_22-1

>  <s_m_source_file>  (1) 
generated_generic_title2_ligand_DiffSBDD_2026-06-23_prepared.sdf

>  <GenAI_Model>  (1) 
DiffSBDD

>  <Protein>  (1) 
generic_title2

$$$$
DiffSBDD_59
     RDKit          3D

  0  0  0  0  0  0  0  0  0  0999 V3000
M  V30 BEGIN CTAB
M  V30 COUNTS 69 72 0 0 1
M  V30 BEGIN ATOM
M  V30 1 C 7.243418 5.603092 -16.813500 0 CFG=2
M  V30 2 C 5.735180 6.855137 -19.488623 0
M  V30 3 C 11.721029 7.746188 -4.409785 0
M  V30 4 P 7.657238 4.321278 -15.521225 0 CFG=2
M  V30 5 C 12.316744 7.100100 -2.191817 0
M  V30 6 O 9.375284 4.526920 -11.006063 0
M  V30 7 C 9.946819 7.377058 -10.673559 0
M  V30 8 C 9.971878 7.043328 -8.269290 0
M  V30 9 C 6.469791 6.790390 -16.193695 0
M  V30 10 C 9.753905 6.160429 -7.214099 0
M  V30 11 C 10.332827 6.390262 -5.967800 0
M  V30 12 C 8.804380 3.826252 -18.929903 0
M  V30 13 N 9.375490 6.765354 -9.492015 0
M  V30 14 C 6.625021 5.003240 -18.115277 0 CFG=1
M  V30 15 O 4.871607 7.691318 -19.742540 0
M  V30 16 C 11.130329 7.518140 -5.739461 0
M  V30 17 O 8.109854 6.023714 -19.600906 0
M  V30 18 C 6.253165 4.167690 -14.329457 0
M  V30 19 C 11.775443 6.749581 -3.420603 0
M  V30 20 C 7.046576 6.676514 -21.675019 0
M  V30 21 O 5.564187 5.808626 -18.626176 0
M  V30 22 C 6.905071 4.270879 -12.951283 0 CFG=2
M  V30 23 C 9.216168 6.817490 -11.916983 0 CFG=1
M  V30 24 C 12.644473 9.195096 -2.958940 0
M  V30 25 O 6.182875 5.168567 -12.126041 0
M  V30 26 C 10.774456 8.187117 -8.073495 0
M  V30 27 C 9.065950 5.257760 -11.943979 0
M  V30 28 C 8.408191 4.592961 -13.144083 0 CFG=2
M  V30 29 C 11.344440 8.428773 -6.810031 0
M  V30 30 N 8.639789 5.174809 -14.445987 0
M  V30 31 O 8.173994 3.020259 -16.024469 0
M  V30 32 N 12.190184 8.976133 -4.184581 0
M  V30 33 N 12.754534 8.342784 -1.931107 0
M  V30 34 C 7.620641 4.743281 -19.257218 0 CFG=1
M  V30 35 C 7.135741 6.907972 -20.157929 0 CFG=1
M  V30 36 N 7.863493 7.411078 -11.985056 0 CHG=1
M  V30 37 H 8.224103 5.989807 -17.085129 0
M  V30 38 H 12.393773 6.375568 -1.395901 0
M  V30 39 H 11.014103 7.157163 -10.729793 0
M  V30 40 H 9.829572 8.459534 -10.638987 0
M  V30 41 H 6.527896 7.668445 -16.834420 0
M  V30 42 H 5.413160 6.558091 -16.056353 0
M  V30 43 H 6.873616 7.089404 -15.227289 0
M  V30 44 H 9.134689 5.287592 -7.363789 0
M  V30 45 H 10.151687 5.696191 -5.169591 0
M  V30 46 H 8.462579 2.833822 -18.637457 0
M  V30 47 H 9.447322 3.706388 -19.801737 0
M  V30 48 H 9.422278 4.223894 -18.125642 0
M  V30 49 H 8.923386 5.865707 -9.607574 0
M  V30 50 H 6.176155 4.042476 -17.880253 0
M  V30 51 H 5.775637 3.197292 -14.385036 0
M  V30 52 H 5.512400 4.950676 -14.480713 0
M  V30 53 H 11.414006 5.750369 -3.597985 0
M  V30 54 H 6.370707 7.389887 -22.148095 0
M  V30 55 H 8.025895 6.798570 -22.137258 0
M  V30 56 H 6.690433 5.674999 -21.916044 0
M  V30 57 H 6.835434 3.295760 -12.465862 0
M  V30 58 H 9.780926 7.132162 -12.785107 0
M  V30 59 H 12.975288 10.193022 -2.784616 0
M  V30 60 H 6.232579 4.866513 -11.227453 0
M  V30 61 H 10.947520 8.882838 -8.879141 0
M  V30 62 H 8.881725 3.609954 -13.195526 0
M  V30 63 H 11.954325 9.307563 -6.659685 0
M  V30 64 H 8.464041 6.175116 -14.440591 0
M  V30 65 H 7.093393 4.302131 -20.103964 0
M  V30 66 H 7.516775 7.917044 -20.002371 0
M  V30 67 H 7.204747 6.747123 -12.380903 0
M  V30 68 H 7.561254 7.589368 -11.018403 0
M  V30 69 H 7.863764 8.285851 -12.484763 0
M  V30 END ATOM
M  V30 BEGIN BOND
M  V30 1 1 4 1
M  V30 2 1 9 1
M  V30 3 1 10 8
M  V30 4 2 11 10
M  V30 5 1 13 7
M  V30 6 1 13 8
M  V30 7 1 14 1
M  V30 8 2 15 2
M  V30 9 1 16 3
M  V30 10 1 16 11
M  V30 11 1 18 4
M  V30 12 1 19 3
M  V30 13 2 19 5
M  V30 14 1 21 2
M  V30 15 1 21 14
M  V30 16 1 22 18
M  V30 17 1 23 7
M  V30 18 1 25 22
M  V30 19 2 26 8
M  V30 20 2 27 6
M  V30 21 1 27 23
M  V30 22 1 28 22
M  V30 23 1 28 27
M  V30 24 2 29 16
M  V30 25 1 29 26
M  V30 26 1 4 30 CFG=1
M  V30 27 1 30 28
M  V30 28 2 31 4
M  V30 29 2 32 3
M  V30 30 1 32 24
M  V30 31 1 33 5
M  V30 32 2 33 24
M  V30 33 1 34 12
M  V30 34 1 34 14
M  V30 35 1 34 17
M  V30 36 1 35 2
M  V30 37 1 35 17
M  V30 38 1 35 20
M  V30 39 1 36 23
M  V30 40 1 1 37 CFG=3
M  V30 41 1 38 5
M  V30 42 1 39 7
M  V30 43 1 40 7
M  V30 44 1 41 9
M  V30 45 1 42 9
M  V30 46 1 43 9
M  V30 47 1 44 10
M  V30 48 1 45 11
M  V30 49 1 46 12
M  V30 50 1 47 12
M  V30 51 1 48 12
M  V30 52 1 49 13
M  V30 53 1 14 50 CFG=1
M  V30 54 1 51 18
M  V30 55 1 52 18
M  V30 56 1 53 19
M  V30 57 1 54 20
M  V30 58 1 55 20
M  V30 59 1 56 20
M  V30 60 1 22 57 CFG=1
M  V30 61 1 23 58 CFG=3
M  V30 62 1 59 24
M  V30 63 1 60 25
M  V30 64 1 61 26
M  V30 65 1 28 62 CFG=3
M  V30 66 1 63 29
M  V30 67 1 64 30
M  V30 68 1 34 65 CFG=3
M  V30 69 1 35 66 CFG=3
M  V30 70 1 67 36
M  V30 71 1 68 36
M  V30 72 1 69 36
M  V30 END BOND
M  V30 END CTAB
M  END
>  <i_epik_Tot_Q>  (1) 
1

>  <i_epik_Tot_abs_Q>  (1) 
1

>  <i_i_glide_confnum>  (1) 
98

>  <i_i_glide_lignum>  (1) 
94

>  <i_i_glide_posenum>  (1) 
21

>  <i_i_glide_rotatable_bonds>  (1) 
9

>  <i_lp_mmshare_version>  (1) 
72125

>  <i_m_source_file_index>  (1) 
60

>  <i_f3d_flags>  (1) 
0

>  <num_sample>  (1) 
100

>  <b_lp_Chiralities_Consistent>  (1) 
1

>  <r_epik_Charging_Adjusted_Penalty>  (1) 
1.6146942296060567

>  <r_epik_Ionization_Penalty>  (1) 
0.80735470395218212

>  <r_epik_Ionization_Penalty_Charging>  (1) 
0.80734711480302834

>  <r_epik_Ionization_Penalty_Neutral>  (1) 
7.5891491537376816e-06

>  <r_epik_State_Penalty>  (1) 
0.80734711480302834

>  <r_glide_ring_energy>  (1) 
0.3356859326826036

>  <r_i_docking_score>  (1) 
-5.167629643439704

>  <r_i_glide_ecoul>  (1) 
-4.8923592139461931

>  <r_i_glide_eff_state_penalty>  (1) 
0.80734711480302834

>  <r_i_glide_einternal>  (1) 
15.760475159250866

>  <r_i_glide_emodel>  (1) 
-52.928308701520919

>  <r_i_glide_emodel_strain>  (1) 
4.8075666789068094

>  <r_i_glide_energy>  (1) 
-44.64798754608227

>  <r_i_glide_erotb>  (1) 
0.61110351075041747

>  <r_i_glide_esite>  (1) 
-0.20000000000000001

>  <r_i_glide_evdw>  (1) 
-39.755628332136077

>  <r_i_glide_gscore>  (1) 
-5.9749767582427324

>  <r_i_glide_gscore_strain>  (1) 
0.20189166972670236

>  <r_i_glide_hbond>  (1) 
-0.20000000000000001

>  <r_i_glide_ligand_efficiency>  (1) 
-0.14354526787332511

>  <r_i_glide_ligand_efficiency_ln>  (1) 
-1.1274371749798733

>  <r_i_glide_ligand_efficiency_sa>  (1) 
-0.47397603144081074

>  <r_i_glide_lipo>  (1) 
-2.3336569638648941

>  <r_i_glide_metal>  (1) 
-0

>  <r_i_glide_rewards>  (1) 
-1.3326796761562245

>  <r_lp_Energy>  (1) 
58.708514999999998

>  <r_lp_tautomer_probability>  (1) 
0.99990000499974985

>  <s_epik_Chemistry_Notes>  (1) 
This compound has an ester and may undergo hydrolysis at high or low pH.

>  <s_epik_cmdline>  (1) 
J2VwaWtfcHl0aG9uJywgJy1waHQnLCAnMS4wJywgJy1waCcsICc3LjQnLCAnLXRuJywgJzgnLCAnLW1hJywgJzUwMCcsICctaW1hZScsICc8aW5maWxlLm1hZT4nLCAnLW9tYWUnLCAnPG91dGZpbGUubWFlPic=

>  <s_epik_input>  (1) 
W0NIM11bQ0BASF0xT1tDQEBIXShbQ0gzXSlbQ0BIXShPQzE9TylbQ0BASF0oW0NIM10pW1BAXTIoPU8pW0NIMl1bQ0BIXShbT0hdKVtDQEBIXShbTkhdMilDKD1PKVtDQEBIXShbTkgyXSlbQ0gyXVtOSF1jM1tjSF1bY0hdYyhbY0hdW2NIXTMpLWM0W2NIXVtjSF1uW2NIXW40

>  <s_glide_docking_method>  (1) 
confgen

>  <s_i_glide_gridfile>  (1) 
gpcr_drd2_6luq_protein_autoprepared_prepared

>  <s_lp_Force_Field>  (1) 
S-OPLS

>  <s_lp_Variant>  (1) 
DiffSBDD_59-2

>  <s_m_source_file>  (1) 
generated_generic_title2_ligand_DiffSBDD_2026-06-23_prepared.sdf

>  <GenAI_Model>  (1) 
DiffSBDD

>  <Protein>  (1) 
generic_title2

$$$$
DiffSBDD_47
     RDKit          3D

  0  0  0  0  0  0  0  0  0  0999 V3000
M  V30 BEGIN CTAB
M  V30 COUNTS 52 54 0 0 1
M  V30 BEGIN ATOM
M  V30 1 C 8.097162 5.354280 -11.074227 0
M  V30 2 C 6.267557 7.590235 -14.537078 0
M  V30 3 O 6.414119 4.295562 -12.418807 0
M  V30 4 C 10.971054 7.146979 -7.909649 0 CFG=2
M  V30 5 C 10.986496 8.315283 -5.541662 0 CFG=2
M  V30 6 N 7.982074 5.518236 -13.505123 0
M  V30 7 C 9.763581 6.536266 -9.711833 0
M  V30 8 O 10.975385 10.583274 -4.785201 0
M  V30 9 C 10.891629 7.447143 -9.485885 0
M  V30 10 C 7.589107 4.789975 -9.878498 0
M  V30 11 C 12.120162 7.488433 -3.330664 0
M  V30 12 C 9.249707 5.990210 -8.589809 0
M  V30 13 O 8.175398 2.967505 -14.747429 0
M  V30 14 O 12.575769 6.844891 -2.389440 0
M  V30 15 C 11.765753 9.421136 -4.787191 0 CFG=1
M  V30 16 C 12.120404 9.004895 -3.348227 0
M  V30 17 C 7.420077 5.007394 -12.398039 0
M  V30 18 C 9.225942 6.250402 -10.988805 0
M  V30 19 C 8.175056 5.108333 -8.636536 0
M  V30 20 C 7.171017 3.825486 -15.225243 0
M  V30 21 O 9.829423 6.361680 -7.433660 0
M  V30 22 C 5.906618 6.311691 -16.667313 0
M  V30 23 S 11.375445 6.722175 -4.773236 0
M  V30 24 O 9.772805 6.833583 -12.100624 0
M  V30 25 C 11.208683 8.409750 -7.071399 0
M  V30 26 C 6.192567 6.188051 -15.157460 0
M  V30 27 C 7.443290 5.310841 -14.866240 0 CFG=1
M  V30 28 H 7.143158 8.139263 -14.882607 0
M  V30 29 H 5.379963 8.167540 -14.795619 0
M  V30 30 H 6.304862 7.551214 -13.447673 0
M  V30 31 H 11.775410 6.450512 -7.725765 0
M  V30 32 H 9.916725 8.417588 -5.373169 0
M  V30 33 H 8.810490 6.096543 -13.403213 0
M  V30 34 H 11.480627 11.315135 -4.467732 0
M  V30 35 H 11.798792 7.189966 -10.030013 0
M  V30 36 H 10.588271 8.470727 -9.708930 0
M  V30 37 H 6.743758 4.117213 -9.913956 0
M  V30 38 H 8.172119 3.015855 -13.802347 0
M  V30 39 H 12.700187 9.640395 -5.305582 0
M  V30 40 H 11.375404 9.353101 -2.632343 0
M  V30 41 H 13.084362 9.404693 -3.033975 0
M  V30 42 H 7.779043 4.685627 -7.725958 0
M  V30 43 H 6.221421 3.489244 -14.808127 0
M  V30 44 H 7.103307 3.694861 -16.304911 0
M  V30 45 H 6.718435 6.824464 -17.183855 0
M  V30 46 H 5.777209 5.344695 -17.149889 0
M  V30 47 H 4.992549 6.879100 -16.847721 0
M  V30 48 H 10.445702 7.459726 -11.884957 0
M  V30 49 H 12.218425 8.755975 -7.291906 0
M  V30 50 H 10.544493 9.190226 -7.436097 0
M  V30 51 H 5.330767 5.696535 -14.702338 0
M  V30 52 H 8.248610 5.655808 -15.517037 0
M  V30 END ATOM
M  V30 BEGIN BOND
M  V30 1 1 9 4
M  V30 2 1 9 7
M  V30 3 1 10 1
M  V30 4 2 12 7
M  V30 5 2 14 11
M  V30 6 1 15 5
M  V30 7 1 15 8
M  V30 8 1 16 11
M  V30 9 1 16 15
M  V30 10 1 17 1
M  V30 11 2 17 3
M  V30 12 1 17 6
M  V30 13 2 18 1
M  V30 14 1 18 7
M  V30 15 2 19 10
M  V30 16 1 19 12
M  V30 17 1 20 13
M  V30 18 1 21 4
M  V30 19 1 21 12
M  V30 20 1 23 5
M  V30 21 1 23 11
M  V30 22 1 24 18
M  V30 23 1 25 4
M  V30 24 1 25 5
M  V30 25 1 26 2
M  V30 26 1 26 22
M  V30 27 1 27 6
M  V30 28 1 27 20
M  V30 29 1 27 26
M  V30 30 1 28 2
M  V30 31 1 29 2
M  V30 32 1 30 2
M  V30 33 1 4 31 CFG=3
M  V30 34 1 5 32 CFG=3
M  V30 35 1 33 6
M  V30 36 1 34 8
M  V30 37 1 35 9
M  V30 38 1 36 9
M  V30 39 1 37 10
M  V30 40 1 38 13
M  V30 41 1 15 39 CFG=3
M  V30 42 1 40 16
M  V30 43 1 41 16
M  V30 44 1 42 19
M  V30 45 1 43 20
M  V30 46 1 44 20
M  V30 47 1 45 22
M  V30 48 1 46 22
M  V30 49 1 47 22
M  V30 50 1 48 24
M  V30 51 1 49 25
M  V30 52 1 50 25
M  V30 53 1 51 26
M  V30 54 1 27 52 CFG=3
M  V30 END BOND
M  V30 END CTAB
M  END
>  <i_epik_Tot_Q>  (1) 
0

>  <i_epik_Tot_abs_Q>  (1) 
0

>  <i_i_glide_confnum>  (1) 
128

>  <i_i_glide_lignum>  (1) 
76

>  <i_i_glide_posenum>  (1) 
181

>  <i_i_glide_rotatable_bonds>  (1) 
10

>  <i_lp_mmshare_version>  (1) 
72125

>  <i_m_source_file_index>  (1) 
48

>  <i_f3d_flags>  (1) 
0

>  <num_sample>  (1) 
100

>  <b_lp_Chiralities_Consistent>  (1) 
1

>  <r_epik_Charging_Adjusted_Penalty>  (1) 
0.019901406152345185

>  <r_epik_Ionization_Penalty>  (1) 
0.019911706661848872

>  <r_epik_Ionization_Penalty_Charging>  (1) 
0

>  <r_epik_Ionization_Penalty_Neutral>  (1) 
0.019911706661848872

>  <r_epik_State_Penalty>  (1) 
0.019901406152345185

>  <r_glide_ring_energy>  (1) 
0

>  <r_i_docking_score>  (1) 
-5.161151736326433

>  <r_i_glide_ecoul>  (1) 
2.3394987716170492

>  <r_i_glide_eff_state_penalty>  (1) 
0.019901406152345185

>  <r_i_glide_einternal>  (1) 
12.505930266824205

>  <r_i_glide_emodel>  (1) 
-37.903670345671912

>  <r_i_glide_emodel_strain>  (1) 
2.0423713196365583

>  <r_i_glide_energy>  (1) 
-35.995827687941798

>  <r_i_glide_erotb>  (1) 
0.75018821045154971

>  <r_i_glide_esite>  (1) 
0

>  <r_i_glide_evdw>  (1) 
-38.33532645955885

>  <r_i_glide_gscore>  (1) 
-5.1810531424787785

>  <r_i_glide_gscore_strain>  (1) 
0

>  <r_i_glide_hbond>  (1) 
0

>  <r_i_glide_ligand_efficiency>  (1) 
-0.19115376801209011

>  <r_i_glide_ligand_efficiency_ln>  (1) 
-1.2014310359804132

>  <r_i_glide_ligand_efficiency_sa>  (1) 
-0.57346130403627049

>  <r_i_glide_lipo>  (1) 
-2.3836471269289499

>  <r_i_glide_metal>  (1) 
-0

>  <r_i_glide_rewards>  (1) 
-1.9817527187659931

>  <r_lp_Energy>  (1) 
10.170142999999999

>  <r_lp_tautomer_probability>  (1) 
1

>  <s_epik_cmdline>  (1) 
J2VwaWtfcHl0aG9uJywgJy1waHQnLCAnMS4wJywgJy1waCcsICc3LjQnLCAnLXRuJywgJzgnLCAnLW1hJywgJzUwMCcsICctaW1hZScsICc8aW5maWxlLm1hZT4nLCAnLW9tYWUnLCAnPG91dGZpbGUubWFlPic=

>  <s_epik_input>  (1) 
W0NIM11bQ0hdKFtDSDNdKVtDQEhdKFtDSDJdW09IXSlbTkhdQyg9TyljKGMxW09IXSlbY0hdW2NIXWMoYzEyKU9bQ0BASF0oW0NIMl0yKVtDSDJdW0NAQEhdM1tDQEBIXShbT0hdKVtDSDJdQyg9TylTMw==

>  <s_glide_docking_method>  (1) 
confgen

>  <s_i_glide_gridfile>  (1) 
gpcr_drd2_6luq_protein_autoprepared_prepared

>  <s_lp_Force_Field>  (1) 
S-OPLS

>  <s_lp_Variant>  (1) 
DiffSBDD_47-1

>  <s_m_source_file>  (1) 
generated_generic_title2_ligand_DiffSBDD_2026-06-23_prepared.sdf

>  <GenAI_Model>  (1) 
DiffSBDD

>  <Protein>  (1) 
generic_title2

$$$$
DiffSBDD_38
     RDKit          3D

  0  0  0  0  0  0  0  0  0  0999 V3000
M  V30 BEGIN CTAB
M  V30 COUNTS 86 90 0 0 1
M  V30 BEGIN ATOM
M  V30 1 C 7.385738 5.333492 -13.565056 0 CFG=2
M  V30 2 C 8.153167 2.892775 -17.946501 0
M  V30 3 C 9.378124 7.343431 -10.765036 0
M  V30 4 C 7.469281 2.475960 -14.888389 0
M  V30 5 C 9.435807 -0.221693 -17.343108 0 CFG=1
M  V30 6 C 8.191444 6.367118 -10.899340 0 CFG=2
M  V30 7 C 10.868286 6.258076 -7.557552 0
M  V30 8 F 10.802604 1.004906 -19.053428 0
M  V30 9 C 7.973928 1.568960 -15.759116 0
M  V30 10 C 9.454885 3.679870 -17.648132 0 CFG=2
M  V30 11 C 6.720836 3.696800 -15.322769 0
M  V30 12 O 10.529694 6.390436 -6.182914 0
M  V30 13 C 8.541589 4.952048 -11.300231 0
M  V30 14 C 9.464506 4.589640 -16.386812 0
M  V30 15 C 8.670968 3.083989 -12.792122 0
M  V30 16 O 7.775203 0.903188 -13.058005 0
M  V30 17 C 10.154902 -1.190519 -18.189561 0
M  V30 18 C 5.864674 5.923096 -15.501494 0
M  V30 19 C 8.577094 4.636038 -12.804541 0 CFG=1
M  V30 20 C 10.733315 7.715349 -5.692614 0
M  V30 21 C 7.530037 2.261462 -13.386141 0 CFG=2
M  V30 22 O 5.446199 -1.617459 -16.846471 0
M  V30 23 C 7.156778 5.118249 -15.103340 0 CFG=1
M  V30 24 O 10.305057 6.951005 -9.765097 0
M  V30 25 C 9.938786 4.429397 -18.906839 0
M  V30 26 C 10.206129 8.744673 -6.657991 0
M  V30 27 O 9.775383 5.190454 -13.304987 0
M  V30 28 F 10.845968 4.999967 -7.984225 0
M  V30 29 C 10.772730 0.150451 -17.965230 0
M  V30 30 F 12.075412 6.790459 -7.756735 0
M  V30 31 N 8.268203 0.429949 -17.886576 0
M  V30 32 C 8.289435 5.548540 -16.099074 0 CFG=2
M  V30 33 C 7.066595 6.977399 -11.743043 0
M  V30 34 F 11.913529 0.185444 -17.185146 0
M  V30 35 C 9.795154 8.426832 -7.888198 0
M  V30 36 N 8.015265 1.643603 -17.183810 0
M  V30 37 O 7.774575 5.990227 -17.353035 0
M  V30 38 C 7.015213 -0.352272 -18.029598 0 CFG=2
M  V30 39 C 9.848748 7.022149 -8.415648 0 CFG=2
M  V30 40 C 5.915012 0.401324 -18.806792 0
M  V30 41 C 7.337733 6.830466 -13.207984 0
M  V30 42 O 6.578907 -0.710811 -16.725023 0
M  V30 43 H 6.493719 4.913750 -13.097149 0
M  V30 44 H 8.287846 2.534965 -18.968433 0
M  V30 45 H 7.268579 3.499267 -18.106873 0
M  V30 46 H 9.912385 7.397739 -11.712160 0
M  V30 47 H 9.019781 8.353399 -10.565216 0
M  V30 48 H 9.375592 -0.677495 -16.363917 0
M  V30 49 H 7.777793 6.122047 -9.929588 0
M  V30 50 H 8.416692 0.672893 -15.374205 0
M  V30 51 H 10.231773 2.938051 -17.461180 0
M  V30 52 H 6.575403 3.612865 -16.360153 0
M  V30 53 H 5.775521 3.590183 -14.784913 0
M  V30 54 H 9.467820 4.649557 -10.805577 0
M  V30 55 H 7.761928 4.329287 -10.851388 0
M  V30 56 H 10.373842 5.190566 -16.437511 0
M  V30 57 H 9.612270 3.990313 -15.507616 0
M  V30 58 H 9.609174 2.769761 -13.185044 0
M  V30 59 H 8.833861 2.725658 -11.781176 0
M  V30 60 H 8.278774 0.868413 -12.254047 0
M  V30 61 H 10.529287 -2.009845 -17.585039 0
M  V30 62 H 9.720511 -1.406625 -19.164767 0
M  V30 63 H 6.056103 6.987353 -15.651401 0
M  V30 64 H 5.423849 5.590265 -16.442484 0
M  V30 65 H 5.079371 5.827815 -14.750481 0
M  V30 66 H 11.775535 7.910023 -5.461020 0
M  V30 67 H 10.175462 7.802790 -4.785076 0
M  V30 68 H 6.582169 2.535163 -12.920617 0
M  V30 69 H 5.871308 -2.456569 -16.746036 0
M  V30 70 H 9.198843 5.135665 -19.280861 0
M  V30 71 H 10.859008 4.981660 -18.715208 0
M  V30 72 H 10.152452 3.730660 -19.716077 0
M  V30 73 H 10.175200 9.764433 -6.317267 0
M  V30 74 H 10.508064 4.613409 -13.123157 0
M  V30 75 H 8.738531 6.390128 -15.593122 0
M  V30 76 H 6.944007 8.047722 -11.584968 0
M  V30 77 H 6.113758 6.515269 -11.481662 0
M  V30 78 H 9.418686 9.190256 -8.551575 0
M  V30 79 H 7.267926 5.291654 -17.732171 0
M  V30 80 H 7.261535 -1.261302 -18.579549 0
M  V30 81 H 8.877546 6.563220 -8.257570 0
M  V30 82 H 6.297090 0.778212 -19.755215 0
M  V30 83 H 5.066431 -0.243934 -19.033920 0
M  V30 84 H 5.536545 1.250041 -18.236706 0
M  V30 85 H 8.250994 7.347750 -13.486608 0
M  V30 86 H 6.530015 7.383974 -13.671331 0
M  V30 END ATOM
M  V30 BEGIN BOND
M  V30 1 1 6 3
M  V30 2 2 9 4
M  V30 3 1 10 2
M  V30 4 1 11 4
M  V30 5 1 12 7
M  V30 6 1 13 6
M  V30 7 1 14 10
M  V30 8 1 17 5
M  V30 9 1 19 1
M  V30 10 1 19 13
M  V30 11 1 19 15
M  V30 12 1 20 12
M  V30 13 1 21 4
M  V30 14 1 21 15
M  V30 15 1 21 16
M  V30 16 1 23 1
M  V30 17 1 23 11
M  V30 18 1 23 18 CFG=3
M  V30 19 1 24 3
M  V30 20 1 25 10
M  V30 21 1 26 20
M  V30 22 1 19 27 CFG=3
M  V30 23 1 28 7
M  V30 24 1 29 5
M  V30 25 1 29 8
M  V30 26 1 29 17
M  V30 27 1 30 7
M  V30 28 1 31 5
M  V30 29 1 32 14
M  V30 30 1 32 23
M  V30 31 1 33 6
M  V30 32 1 34 29
M  V30 33 2 35 26
M  V30 34 1 36 2
M  V30 35 1 36 9
M  V30 36 1 36 31
M  V30 37 1 37 32
M  V30 38 1 38 31
M  V30 39 1 39 7
M  V30 40 1 39 24
M  V30 41 1 39 35
M  V30 42 1 40 38
M  V30 43 1 41 1
M  V30 44 1 41 33
M  V30 45 1 42 22
M  V30 46 1 42 38
M  V30 47 1 1 43 CFG=1
M  V30 48 1 44 2
M  V30 49 1 45 2
M  V30 50 1 46 3
M  V30 51 1 47 3
M  V30 52 1 5 48 CFG=1
M  V30 53 1 6 49 CFG=1
M  V30 54 1 50 9
M  V30 55 1 10 51 CFG=1
M  V30 56 1 52 11
M  V30 57 1 53 11
M  V30 58 1 54 13
M  V30 59 1 55 13
M  V30 60 1 56 14
M  V30 61 1 57 14
M  V30 62 1 58 15
M  V30 63 1 59 15
M  V30 64 1 60 16
M  V30 65 1 61 17
M  V30 66 1 62 17
M  V30 67 1 63 18
M  V30 68 1 64 18
M  V30 69 1 65 18
M  V30 70 1 66 20
M  V30 71 1 67 20
M  V30 72 1 21 68 CFG=1
M  V30 73 1 69 22
M  V30 74 1 70 25
M  V30 75 1 71 25
M  V30 76 1 72 25
M  V30 77 1 73 26
M  V30 78 1 74 27
M  V30 79 1 32 75 CFG=1
M  V30 80 1 76 33
M  V30 81 1 77 33
M  V30 82 1 78 35
M  V30 83 1 79 37
M  V30 84 1 38 80 CFG=3
M  V30 85 1 39 81 CFG=3
M  V30 86 1 82 40
M  V30 87 1 83 40
M  V30 88 1 84 40
M  V30 89 1 85 41
M  V30 90 1 86 41
M  V30 END BOND
M  V30 END CTAB
M  END
>  <i_epik_Tot_Q>  (1) 
0

>  <i_epik_Tot_abs_Q>  (1) 
0

>  <i_i_glide_confnum>  (1) 
146

>  <i_i_glide_lignum>  (1) 
64

>  <i_i_glide_posenum>  (1) 
283

>  <i_i_glide_rotatable_bonds>  (1) 
11

>  <i_lp_mmshare_version>  (1) 
72125

>  <i_m_source_file_index>  (1) 
39

>  <i_f3d_flags>  (1) 
0

>  <num_sample>  (1) 
100

>  <b_lp_Chiralities_Consistent>  (1) 
1

>  <r_epik_Charging_Adjusted_Penalty>  (1) 
0

>  <r_epik_Ionization_Penalty>  (1) 
2.4228423565681287e-05

>  <r_epik_Ionization_Penalty_Charging>  (1) 
0

>  <r_epik_Ionization_Penalty_Neutral>  (1) 
2.4228423565681287e-05

>  <r_epik_State_Penalty>  (1) 
-0

>  <r_glide_ring_energy>  (1) 
0.27259175540770147

>  <r_i_docking_score>  (1) 
-5.1597149619905656

>  <r_i_glide_ecoul>  (1) 
-6.2112932814416517

>  <r_i_glide_eff_state_penalty>  (1) 
-0

>  <r_i_glide_einternal>  (1) 
3.3158518837385724

>  <r_i_glide_emodel>  (1) 
-34.500014833918748

>  <r_i_glide_emodel_strain>  (1) 
2.3543105738239092

>  <r_i_glide_energy>  (1) 
-15.422611701568592

>  <r_i_glide_erotb>  (1) 
0.27413222911568258

>  <r_i_glide_esite>  (1) 
-0.010769267773507708

>  <r_i_glide_evdw>  (1) 
-9.2113184201269398

>  <r_i_glide_gscore>  (1) 
-5.1597149619905656

>  <r_i_glide_gscore_strain>  (1) 
0

>  <r_i_glide_hbond>  (1) 
-0.52948822064073642

>  <r_i_glide_ligand_efficiency>  (1) 
-0.12285035623787061

>  <r_i_glide_ligand_efficiency_ln>  (1) 
-1.0890828989168984

>  <r_i_glide_ligand_efficiency_sa>  (1) 
-0.4270311116166306

>  <r_i_glide_lipo>  (1) 
-2.3234888289312003

>  <r_i_glide_metal>  (1) 
-0

>  <r_i_glide_rewards>  (1) 
-1.1778409605382096

>  <r_lp_Energy>  (1) 
66.758932000000001

>  <r_lp_tautomer_probability>  (1) 
1

>  <s_epik_Chemistry_Notes>  (1) 
This compound contains an acetal/aminal-like group ( X-CH(R)-Y where X, Y are N, S, or O) that may be acid/base labile, releasing an aldehyde.

>  <s_epik_cmdline>  (1) 
J2VwaWtfcHl0aG9uJywgJy1waHQnLCAnMS4wJywgJy1waCcsICc3LjQnLCAnLXRuJywgJzgnLCAnLW1hJywgJzUwMCcsICctaW1hZScsICc8aW5maWxlLm1hZT4nLCAnLW9tYWUnLCAnPG91dGZpbGUubWFlPic=

>  <s_epik_input>  (1) 
W09IXVtDQEBIXTFbQ0gyXVtDQEhdKFtDSDNdKVtDSDJdTihOKFtDQEBIXShbQ0gyXTIpQzIoRilGKVtDQEhdKFtDSDNdKU9bT0hdKS9bQ0hdPUMoW0NASF0oW0NIMl0zKVtPSF0pXFtDSDJdW0NAQF0xKFtDSDNdKVtDQEBIXShbQ0BdMzRbT0hdKVtDSDJdW0NIMl1bQ0BASF0oW0NIMl00KVtDSDJdT1tDQEBIXTVbQ0hdPVtDSF1bQ0gyXU9DNShGKUY=

>  <s_glide_docking_method>  (1) 
confgen

>  <s_i_glide_gridfile>  (1) 
gpcr_drd2_6luq_protein_autoprepared_prepared

>  <s_lp_Force_Field>  (1) 
S-OPLS

>  <s_lp_Variant>  (1) 
DiffSBDD_38-1

>  <s_m_source_file>  (1) 
generated_generic_title2_ligand_DiffSBDD_2026-06-23_prepared.sdf

>  <GenAI_Model>  (1) 
DiffSBDD

>  <Protein>  (1) 
generic_title2

$$$$
DiffSBDD_92
     RDKit          3D

  0  0  0  0  0  0  0  0  0  0999 V3000
M  V30 BEGIN CTAB
M  V30 COUNTS 50 51 0 0 1
M  V30 BEGIN ATOM
M  V30 1 O 10.247719 6.335053 -12.178202 0
M  V30 2 N 8.975410 6.904157 -10.395630 0
M  V30 3 C 9.172466 6.701773 -11.706819 0
M  V30 4 C 11.775412 7.128700 -4.373471 0
M  V30 5 Cl 6.175805 2.292260 -12.890021 0
M  V30 6 O 8.606927 5.590224 -14.483622 0
M  V30 7 C 11.563183 9.689967 -4.140964 0
M  V30 8 C 7.770957 3.367511 -14.773983 0
M  V30 9 C 6.651468 3.738073 -13.806084 0 CFG=2
M  V30 10 C 12.442646 9.590232 -2.891672 0
M  V30 11 C 12.290586 8.258821 -2.154021 0
M  V30 12 C 7.969581 6.978667 -12.622930 0
M  V30 13 C 9.878671 7.948419 -8.400405 0
M  V30 14 C 7.553846 5.872031 -13.613003 0 CFG=2
M  V30 15 O 7.126558 4.740206 -12.914648 0
M  V30 16 C 10.004504 6.749973 -9.380783 0 CFG=1
M  V30 17 N 10.734744 8.447329 -6.156484 0
M  V30 18 C 8.267892 4.633122 -15.475389 0
M  V30 19 C 11.035406 8.044792 -7.405648 0
M  V30 20 C 11.740683 8.507575 -5.093034 0
M  V30 21 O 12.175405 7.754000 -7.755841 0
M  V30 22 C 12.632302 7.108444 -3.096796 0
M  V30 23 C 9.788188 5.395454 -8.679051 0
M  V30 24 H 8.044870 7.223079 -10.074710 0
M  V30 25 H 10.766440 6.800796 -4.119444 0
M  V30 26 H 12.143209 6.366392 -5.060560 0
M  V30 27 H 11.741087 10.610763 -4.697348 0
M  V30 28 H 10.575408 9.769237 -3.767957 0
M  V30 29 H 7.432639 2.626388 -15.497763 0
M  V30 30 H 8.575407 2.915795 -14.199311 0
M  V30 31 H 5.771705 4.093819 -14.341712 0
M  V30 32 H 13.480668 9.720886 -3.185027 0
M  V30 33 H 12.175406 10.390229 -2.203255 0
M  V30 34 H 12.957747 8.240922 -1.291220 0
M  V30 35 H 11.281917 8.147369 -1.760333 0
M  V30 36 H 7.097006 7.209526 -12.009741 0
M  V30 37 H 8.179307 7.881083 -13.195530 0
M  V30 38 H 8.936938 7.887565 -7.855400 0
M  V30 39 H 9.852881 8.882211 -8.962909 0
M  V30 40 H 6.715141 6.245900 -14.205011 0
M  V30 41 H 10.992331 6.790174 -9.841178 0
M  V30 42 H 9.778970 8.672754 -5.924252 0
M  V30 43 H 7.501944 5.037673 -16.138403 0
M  V30 44 H 9.145540 4.418894 -16.086078 0
M  V30 45 H 12.685150 8.790229 -5.543697 0
M  V30 46 H 13.686084 7.190228 -3.355418 0
M  V30 47 H 12.514000 6.152907 -2.583494 0
M  V30 48 H 10.577149 5.190270 -7.956874 0
M  V30 49 H 8.835772 5.373524 -8.147209 0
M  V30 50 H 9.775434 4.574581 -9.396876 0
M  V30 END ATOM
M  V30 BEGIN BOND
M  V30 1 2 3 1
M  V30 2 1 3 2
M  V30 3 1 9 5
M  V30 4 1 9 8
M  V30 5 1 10 7
M  V30 6 1 11 10
M  V30 7 1 12 3
M  V30 8 1 14 6
M  V30 9 1 14 12
M  V30 10 1 15 9
M  V30 11 1 15 14
M  V30 12 1 16 2
M  V30 13 1 16 13
M  V30 14 1 18 6
M  V30 15 1 18 8
M  V30 16 1 19 13
M  V30 17 1 19 17
M  V30 18 1 20 4
M  V30 19 1 20 7
M  V30 20 1 20 17
M  V30 21 2 21 19
M  V30 22 1 22 4
M  V30 23 1 22 11
M  V30 24 1 23 16
M  V30 25 1 24 2
M  V30 26 1 25 4
M  V30 27 1 26 4
M  V30 28 1 27 7
M  V30 29 1 28 7
M  V30 30 1 29 8
M  V30 31 1 30 8
M  V30 32 1 9 31 CFG=3
M  V30 33 1 32 10
M  V30 34 1 33 10
M  V30 35 1 34 11
M  V30 36 1 35 11
M  V30 37 1 36 12
M  V30 38 1 37 12
M  V30 39 1 38 13
M  V30 40 1 39 13
M  V30 41 1 14 40 CFG=3
M  V30 42 1 16 41 CFG=3
M  V30 43 1 42 17
M  V30 44 1 43 18
M  V30 45 1 44 18
M  V30 46 1 45 20
M  V30 47 1 46 22
M  V30 48 1 47 22
M  V30 49 1 48 23
M  V30 50 1 49 23
M  V30 51 1 50 23
M  V30 END BOND
M  V30 END CTAB
M  END
>  <i_epik_Tot_Q>  (1) 
0

>  <i_epik_Tot_abs_Q>  (1) 
0

>  <i_i_glide_confnum>  (1) 
29

>  <i_i_glide_lignum>  (1) 
175

>  <i_i_glide_posenum>  (1) 
217

>  <i_i_glide_rotatable_bonds>  (1) 
8

>  <i_lp_mmshare_version>  (1) 
72125

>  <i_m_source_file_index>  (1) 
93

>  <i_f3d_flags>  (1) 
0

>  <num_sample>  (1) 
100

>  <b_lp_Chiralities_Consistent>  (1) 
1

>  <r_epik_Charging_Adjusted_Penalty>  (1) 
0

>  <r_epik_Ionization_Penalty>  (1) 
1.562769370877429e-07

>  <r_epik_Ionization_Penalty_Charging>  (1) 
0

>  <r_epik_Ionization_Penalty_Neutral>  (1) 
1.562769370877429e-07

>  <r_epik_State_Penalty>  (1) 
-0

>  <r_glide_ring_energy>  (1) 
0

>  <r_i_docking_score>  (1) 
-5.1551184410947357

>  <r_i_glide_ecoul>  (1) 
-5.0934731507846598

>  <r_i_glide_eff_state_penalty>  (1) 
-0

>  <r_i_glide_einternal>  (1) 
2.517859770072711

>  <r_i_glide_emodel>  (1) 
-42.279892274600719

>  <r_i_glide_emodel_strain>  (1) 
0.019496975289945873

>  <r_i_glide_energy>  (1) 
-32.496114604221304

>  <r_i_glide_erotb>  (1) 
0.94841189780278856

>  <r_i_glide_esite>  (1) 
-0.13295706884949912

>  <r_i_glide_evdw>  (1) 
-27.402641453436647

>  <r_i_glide_gscore>  (1) 
-5.1551184410947357

>  <r_i_glide_gscore_strain>  (1) 
0

>  <r_i_glide_hbond>  (1) 
-0.12358450636208657

>  <r_i_glide_ligand_efficiency>  (1) 
-0.2241355843954233

>  <r_i_glide_ligand_efficiency_ln>  (1) 
-1.2465543830863515

>  <r_i_glide_ligand_efficiency_sa>  (1) 
-0.6374117874718781

>  <r_i_glide_lipo>  (1) 
-2.0689848198772793

>  <r_i_glide_metal>  (1) 
-0

>  <r_i_glide_rewards>  (1) 
-1.6438508985191278

>  <r_lp_Energy>  (1) 
5.1782649999999997

>  <r_lp_tautomer_probability>  (1) 
1

>  <s_epik_Chemistry_Notes>  (1) 
This compound contains an acetal/aminal-like group ( X-CH(R)-Y where X, Y are N, S, or O) that may be acid/base labile, releasing an aldehyde.

>  <s_epik_cmdline>  (1) 
J2VwaWtfcHl0aG9uJywgJy1waHQnLCAnMS4wJywgJy1waCcsICc3LjQnLCAnLXRuJywgJzgnLCAnLW1hJywgJzUwMCcsICctaW1hZScsICc8aW5maWxlLm1hZT4nLCAnLW9tYWUnLCAnPG91dGZpbGUubWFlPic=

>  <s_epik_input>  (1) 
Q2xbQ0BASF0xW0NIMl1bQ0gyXU9bQ0BASF0oTzEpW0NIMl1DKD1PKVtOSF1bQ0BIXShbQ0gzXSlbQ0gyXUMoPU8pW05IXVtDSF0yW0NIMl1bQ0gyXVtDSDJdW0NIMl1bQ0gyXTI=

>  <s_glide_docking_method>  (1) 
confgen

>  <s_i_glide_gridfile>  (1) 
gpcr_drd2_6luq_protein_autoprepared_prepared

>  <s_lp_Force_Field>  (1) 
S-OPLS

>  <s_lp_Variant>  (1) 
DiffSBDD_92-1

>  <s_m_source_file>  (1) 
generated_generic_title2_ligand_DiffSBDD_2026-06-23_prepared.sdf

>  <GenAI_Model>  (1) 
DiffSBDD

>  <Protein>  (1) 
generic_title2

$$$$
DiffSBDD_6
     RDKit          3D

  0  0  0  0  0  0  0  0  0  0999 V3000
M  V30 BEGIN CTAB
M  V30 COUNTS 72 73 0 0 1
M  V30 BEGIN ATOM
M  V30 1 C 11.617686 7.455375 -4.727153 0
M  V30 2 O 6.175328 -0.527631 -12.046036 0
M  V30 3 C 7.396380 1.830445 -14.756869 0 CFG=1
M  V30 4 C 12.016537 6.684371 -2.524207 0
M  V30 5 C 8.712151 6.372858 -11.420998 0
M  V30 6 C 13.330928 8.699022 -10.895282 0
M  V30 7 C 11.917624 7.568682 -9.387980 0 CFG=1
M  V30 8 C 6.286636 4.771541 -12.859026 0
M  V30 9 C 8.336516 2.052224 -17.116166 0
M  V30 10 C 8.541625 6.008085 -12.901131 0
M  V30 11 C 10.109215 6.956543 -11.106410 0
M  V30 12 C 7.256029 1.418889 -16.231156 0
M  V30 13 C 12.282071 7.755506 -7.903691 0
M  V30 14 O 8.861974 8.389973 -6.542215 0
M  V30 15 F 5.377159 0.619067 -14.425283 0
M  V30 16 C 11.206438 8.491197 -7.087684 0 CFG=1
M  V30 17 C 10.501979 6.990375 -9.605773 0 CFG=2
M  V30 18 O 7.137415 3.219326 -14.578813 0
M  V30 19 C 7.077017 -0.010001 -13.003744 0
M  V30 20 C 5.971040 2.271494 -12.886269 0
M  V30 21 C 7.092753 5.948387 -13.398433 0
M  V30 22 C 12.843380 9.621324 -5.468930 0
M  V30 23 C 9.879774 7.726678 -7.241845 0 CFG=2
M  V30 24 O 12.140983 7.756788 -3.441768 0
M  V30 25 C 11.589407 8.736001 -5.598867 0 CFG=2
M  V30 26 C 9.438256 7.622974 -8.700204 0
M  V30 27 C 6.914051 3.411218 -13.192401 0 CFG=2
M  V30 28 O 12.165363 8.786307 -10.075119 0
M  V30 29 C 6.427469 1.132406 -13.780136 0 CFG=1
M  V30 30 H 10.603526 7.073171 -4.622653 0
M  V30 31 H 12.174739 6.638141 -5.179841 0
M  V30 32 H 5.563530 -1.088767 -12.517582 0
M  V30 33 H 8.423344 1.649423 -14.431898 0
M  V30 34 H 12.488337 6.967583 -1.585763 0
M  V30 35 H 10.973683 6.437123 -2.321788 0
M  V30 36 H 12.510612 5.786772 -2.889297 0
M  V30 37 H 7.957502 7.120793 -11.185778 0
M  V30 38 H 8.502126 5.500501 -10.800686 0
M  V30 39 H 13.540357 9.630059 -11.400197 0
M  V30 40 H 14.215343 8.394141 -10.329548 0
M  V30 41 H 13.159033 7.990317 -11.705172 0
M  V30 42 H 12.574536 6.813704 -9.809356 0
M  V30 43 H 5.280030 4.830326 -13.276939 0
M  V30 44 H 6.174257 4.863884 -11.775943 0
M  V30 45 H 8.215460 1.743803 -18.155394 0
M  V30 46 H 8.282678 3.141355 -17.082255 0
M  V30 47 H 9.333750 1.753968 -16.789653 0
M  V30 48 H 9.104432 5.109388 -13.151729 0
M  V30 49 H 8.975653 6.790636 -13.487013 0
M  V30 50 H 10.862396 6.389810 -11.650570 0
M  V30 51 H 10.168626 7.960422 -11.528793 0
M  V30 52 H 7.323501 0.333795 -16.308936 0
M  V30 53 H 6.268770 1.692484 -16.602825 0
M  V30 54 H 13.240158 8.269808 -7.862271 0
M  V30 55 H 12.423750 6.790518 -7.433635 0
M  V30 56 H 8.030656 7.976394 -6.764010 0
M  V30 57 H 11.085084 9.468471 -7.546365 0
M  V30 58 H 10.562901 5.958899 -9.262683 0
M  V30 59 H 7.985653 0.326422 -12.499545 0
M  V30 60 H 7.346512 -0.789817 -13.713375 0
M  V30 61 H 4.974852 2.573316 -13.185266 0
M  V30 62 H 5.948429 2.032366 -11.825279 0
M  V30 63 H 7.095988 5.899698 -14.488500 0
M  V30 64 H 6.582773 6.877763 -13.145237 0
M  V30 65 H 13.742869 9.190427 -5.894417 0
M  V30 66 H 12.675780 10.565317 -5.985435 0
M  V30 67 H 13.062833 9.860456 -4.428412 0
M  V30 68 H 9.968898 6.719866 -6.835325 0
M  V30 69 H 10.798558 9.352638 -5.174074 0
M  V30 70 H 9.134136 8.597186 -9.085272 0
M  V30 71 H 8.575410 6.956251 -8.704560 0
M  V30 72 H 7.850383 3.268718 -12.652151 0
M  V30 END ATOM
M  V30 BEGIN BOND
M  V30 1 1 10 5
M  V30 2 1 11 5
M  V30 3 1 12 3
M  V30 4 1 12 9
M  V30 5 1 13 7
M  V30 6 1 16 13
M  V30 7 1 17 7
M  V30 8 1 17 11
M  V30 9 1 18 3
M  V30 10 1 19 2
M  V30 11 1 21 8
M  V30 12 1 21 10
M  V30 13 1 23 14
M  V30 14 1 23 16
M  V30 15 1 24 1
M  V30 16 1 24 4
M  V30 17 1 25 1
M  V30 18 1 25 16
M  V30 19 1 25 22
M  V30 20 1 26 17
M  V30 21 1 26 23
M  V30 22 1 27 8
M  V30 23 1 27 18
M  V30 24 1 27 20
M  V30 25 1 28 6
M  V30 26 1 28 7
M  V30 27 1 29 3
M  V30 28 1 29 15 CFG=3
M  V30 29 1 29 19
M  V30 30 1 29 20
M  V30 31 1 30 1
M  V30 32 1 31 1
M  V30 33 1 32 2
M  V30 34 1 3 33 CFG=1
M  V30 35 1 34 4
M  V30 36 1 35 4
M  V30 37 1 36 4
M  V30 38 1 37 5
M  V30 39 1 38 5
M  V30 40 1 39 6
M  V30 41 1 40 6
M  V30 42 1 41 6
M  V30 43 1 7 42 CFG=3
M  V30 44 1 43 8
M  V30 45 1 44 8
M  V30 46 1 45 9
M  V30 47 1 46 9
M  V30 48 1 47 9
M  V30 49 1 48 10
M  V30 50 1 49 10
M  V30 51 1 50 11
M  V30 52 1 51 11
M  V30 53 1 52 12
M  V30 54 1 53 12
M  V30 55 1 54 13
M  V30 56 1 55 13
M  V30 57 1 56 14
M  V30 58 1 16 57 CFG=3
M  V30 59 1 17 58 CFG=1
M  V30 60 1 59 19
M  V30 61 1 60 19
M  V30 62 1 61 20
M  V30 63 1 62 20
M  V30 64 1 63 21
M  V30 65 1 64 21
M  V30 66 1 65 22
M  V30 67 1 66 22
M  V30 68 1 67 22
M  V30 69 1 23 68 CFG=1
M  V30 70 1 25 69 CFG=1
M  V30 71 1 70 26
M  V30 72 1 71 26
M  V30 73 1 27 72 CFG=1
M  V30 END BOND
M  V30 END CTAB
M  END
>  <i_epik_Tot_Q>  (1) 
0

>  <i_epik_Tot_abs_Q>  (1) 
0

>  <i_i_glide_confnum>  (1) 
267

>  <i_i_glide_lignum>  (1) 
9

>  <i_i_glide_posenum>  (1) 
141

>  <i_i_glide_rotatable_bonds>  (1) 
14

>  <i_lp_mmshare_version>  (1) 
72125

>  <i_m_source_file_index>  (1) 
7

>  <i_f3d_flags>  (1) 
0

>  <num_sample>  (1) 
100

>  <b_lp_Chiralities_Consistent>  (1) 
1

>  <r_epik_Charging_Adjusted_Penalty>  (1) 
0

>  <r_epik_Ionization_Penalty>  (1) 
7.0602717257541721e-07

>  <r_epik_Ionization_Penalty_Charging>  (1) 
0

>  <r_epik_Ionization_Penalty_Neutral>  (1) 
7.0602717257541721e-07

>  <r_epik_State_Penalty>  (1) 
-0

>  <r_glide_ring_energy>  (1) 
0

>  <r_i_docking_score>  (1) 
-5.1538564108178964

>  <r_i_glide_ecoul>  (1) 
-4.6523302317290671

>  <r_i_glide_eff_state_penalty>  (1) 
-0

>  <r_i_glide_einternal>  (1) 
3.7448132075857643

>  <r_i_glide_emodel>  (1) 
-29.48980044512551

>  <r_i_glide_emodel_strain>  (1) 
2.0733030898322795

>  <r_i_glide_energy>  (1) 
-28.273140773763156

>  <r_i_glide_erotb>  (1) 
1.0157505286842679

>  <r_i_glide_esite>  (1) 
-0.021394844153825161

>  <r_i_glide_evdw>  (1) 
-23.620810542034089

>  <r_i_glide_gscore>  (1) 
-5.1538564108178964

>  <r_i_glide_gscore_strain>  (1) 
0

>  <r_i_glide_hbond>  (1) 
-0.30399999999999999

>  <r_i_glide_ligand_efficiency>  (1) 
-0.17771918657992747

>  <r_i_glide_ligand_efficiency_ln>  (1) 
-1.1801024275550067

>  <r_i_glide_ligand_efficiency_sa>  (1) 
-0.54600964717671363

>  <r_i_glide_lipo>  (1) 
-2.6434167595513789

>  <r_i_glide_metal>  (1) 
-0

>  <r_i_glide_rewards>  (1) 
-1.3219052739358954

>  <r_lp_Energy>  (1) 
8.972643999999999

>  <r_lp_tautomer_probability>  (1) 
1

>  <s_epik_cmdline>  (1) 
J2VwaWtfcHl0aG9uJywgJy1waHQnLCAnMS4wJywgJy1waCcsICc3LjQnLCAnLXRuJywgJzgnLCAnLW1hJywgJzUwMCcsICctaW1hZScsICc8aW5maWxlLm1hZT4nLCAnLW9tYWUnLCAnPG91dGZpbGUubWFlPic=

>  <s_epik_input>  (1) 
W0NIM11PW0NIMl1bQ0BASF0oW0NIM10pW0NAQEhdKFtDSDJdW0NAQEhdMU9bQ0gzXSlbQ0BASF0oW09IXSlbQ0gyXVtDQEhdMVtDSDJdW0NIMl1bQ0gyXVtDSDJdW0NIMl1bQ0BASF0oW0NIMl0yKU9bQ0BIXShbQ0gyXVtDSDNdKVtDQEBdMihGKVtDSDJdW09IXQ==

>  <s_glide_docking_method>  (1) 
confgen

>  <s_i_glide_gridfile>  (1) 
gpcr_drd2_6luq_protein_autoprepared_prepared

>  <s_lp_Force_Field>  (1) 
S-OPLS

>  <s_lp_Variant>  (1) 
DiffSBDD_6-1

>  <s_m_source_file>  (1) 
generated_generic_title2_ligand_DiffSBDD_2026-06-23_prepared.sdf

>  <GenAI_Model>  (1) 
DiffSBDD

>  <Protein>  (1) 
generic_title2

$$$$
DiffSBDD_38
     RDKit          3D

  0  0  0  0  0  0  0  0  0  0999 V3000
M  V30 BEGIN CTAB
M  V30 COUNTS 86 90 0 0 1
M  V30 BEGIN ATOM
M  V30 1 C 7.404262 5.299932 -13.450546 0 CFG=2
M  V30 2 C 7.818972 2.652288 -17.694361 0
M  V30 3 C 9.770152 7.263789 -10.796771 0
M  V30 4 C 7.371512 2.339402 -14.610749 0
M  V30 5 C 9.285286 -0.315967 -17.185837 0 CFG=1
M  V30 6 C 8.478807 6.441501 -10.913597 0 CFG=2
M  V30 7 C 10.968573 6.272593 -7.413260 0
M  V30 8 F 10.345586 1.014900 -19.040110 0
M  V30 9 C 7.818672 1.395863 -15.475097 0
M  V30 10 C 9.148882 3.447595 -17.546638 0 CFG=2
M  V30 11 C 6.603986 3.544310 -15.045632 0
M  V30 12 O 10.554951 6.476674 -6.071705 0
M  V30 13 C 8.629487 4.967321 -11.225129 0
M  V30 14 C 9.276500 4.473568 -16.376114 0
M  V30 15 C 8.694484 3.024744 -12.653129 0
M  V30 16 O 7.774351 0.825641 -12.784628 0
M  V30 17 C 9.992958 -1.209395 -18.130624 0
M  V30 18 C 5.763025 5.814171 -15.288337 0
M  V30 19 C 8.600268 4.581981 -12.713275 0 CFG=1
M  V30 20 C 10.759253 7.821241 -5.658774 0
M  V30 21 C 7.513550 2.180038 -13.115963 0 CFG=2
M  V30 22 O 4.567541 -0.717873 -16.851898 0
M  V30 23 C 7.060694 4.996622 -14.958642 0 CFG=1
M  V30 24 O 10.565030 6.846998 -9.690859 0
M  V30 25 C 9.564243 4.082739 -18.893480 0
M  V30 26 C 10.251363 8.790257 -6.685457 0
M  V30 27 O 9.775522 5.109049 -13.281726 0
M  V30 28 F 10.975235 4.999995 -7.760021 0
M  V30 29 C 10.505217 0.176109 -17.953922 0
M  V30 30 F 12.176347 6.790234 -7.583409 0
M  V30 31 N 7.981060 0.177895 -17.572402 0
M  V30 32 C 8.119942 5.427650 -16.035448 0 CFG=2
M  V30 33 C 7.377545 7.125515 -11.727858 0
M  V30 34 F 11.721523 0.304559 -17.308841 0
M  V30 35 C 9.905448 8.409126 -7.916677 0
M  V30 36 N 7.769373 1.422794 -16.891193 0
M  V30 37 O 7.535323 5.825936 -17.268167 0
M  V30 38 C 6.859076 -0.739482 -17.240641 0 CFG=2
M  V30 39 C 10.013771 6.981658 -8.375824 0 CFG=2
M  V30 40 C 6.861232 -2.044886 -18.056961 0
M  V30 41 C 7.492428 6.828642 -13.194219 0
M  V30 42 O 5.660361 -0.033320 -17.527008 0
M  V30 43 H 6.522602 4.971697 -12.895277 0
M  V30 44 H 7.819906 2.277097 -18.718704 0
M  V30 45 H 6.936027 3.277412 -17.728431 0
M  V30 46 H 10.359328 7.164540 -11.708790 0
M  V30 47 H 9.537531 8.322415 -10.684007 0
M  V30 48 H 9.375237 -0.763001 -16.202322 0
M  V30 49 H 8.095650 6.390227 -9.923218 0
M  V30 50 H 8.281192 0.505867 -15.092893 0
M  V30 51 H 9.926890 2.711813 -17.344586 0
M  V30 52 H 6.201486 3.257879 -15.966744 0
M  V30 53 H 5.766684 3.494384 -14.373373 0
M  V30 54 H 9.531935 4.596088 -10.737281 0
M  V30 55 H 7.797770 4.451197 -10.738236 0
M  V30 56 H 10.159951 5.080069 -16.574919 0
M  V30 57 H 9.544219 3.990270 -15.456297 0
M  V30 58 H 9.553785 2.687980 -13.184786 0
M  V30 59 H 8.975867 2.703600 -11.650351 0
M  V30 60 H 8.369595 0.805150 -12.044816 0
M  V30 61 H 10.486274 -2.009586 -17.583934 0
M  V30 62 H 9.461890 -1.463731 -19.049440 0
M  V30 63 H 5.955270 6.873524 -15.452887 0
M  V30 64 H 5.291729 5.512412 -16.218542 0
M  V30 65 H 5.003007 5.728323 -14.513338 0
M  V30 66 H 11.801035 8.009661 -5.412591 0
M  V30 67 H 10.175258 7.974776 -4.784957 0
M  V30 68 H 6.598866 2.465515 -12.593050 0
M  V30 69 H 4.284812 -1.314761 -17.528462 0
M  V30 70 H 8.927700 4.918059 -19.179267 0
M  V30 71 H 10.590260 4.449422 -18.849571 0
M  V30 72 H 9.525952 3.362931 -19.712386 0
M  V30 73 H 10.175504 9.823327 -6.386239 0
M  V30 74 H 10.504501 4.517087 -13.137843 0
M  V30 75 H 8.578958 6.318365 -15.610469 0
M  V30 76 H 7.393423 8.208473 -11.585521 0
M  V30 77 H 6.396368 6.792564 -11.379145 0
M  V30 78 H 9.538339 9.132343 -8.628581 0
M  V30 79 H 7.166921 5.062450 -17.682651 0
M  V30 80 H 6.896508 -0.982306 -16.177825 0
M  V30 81 H 9.048664 6.504833 -8.221729 0
M  V30 82 H 7.710951 -2.673590 -17.799094 0
M  V30 83 H 5.975023 -2.647209 -17.862730 0
M  V30 84 H 6.900672 -1.841335 -19.127201 0
M  V30 85 H 8.418496 7.241105 -13.575878 0
M  V30 86 H 6.696181 7.413238 -13.642136 0
M  V30 END ATOM
M  V30 BEGIN BOND
M  V30 1 1 6 3
M  V30 2 2 9 4
M  V30 3 1 10 2
M  V30 4 1 11 4
M  V30 5 1 12 7
M  V30 6 1 13 6
M  V30 7 1 14 10
M  V30 8 1 17 5
M  V30 9 1 19 1
M  V30 10 1 19 13
M  V30 11 1 19 15
M  V30 12 1 20 12
M  V30 13 1 21 4
M  V30 14 1 21 15
M  V30 15 1 21 16
M  V30 16 1 23 1
M  V30 17 1 23 11
M  V30 18 1 23 18 CFG=3
M  V30 19 1 24 3
M  V30 20 1 25 10
M  V30 21 1 26 20
M  V30 22 1 19 27 CFG=3
M  V30 23 1 28 7
M  V30 24 1 29 5
M  V30 25 1 29 8
M  V30 26 1 29 17
M  V30 27 1 30 7
M  V30 28 1 31 5
M  V30 29 1 32 14
M  V30 30 1 32 23
M  V30 31 1 33 6
M  V30 32 1 34 29
M  V30 33 2 35 26
M  V30 34 1 36 2
M  V30 35 1 36 9
M  V30 36 1 36 31
M  V30 37 1 37 32
M  V30 38 1 38 31
M  V30 39 1 39 7
M  V30 40 1 39 24
M  V30 41 1 39 35
M  V30 42 1 40 38
M  V30 43 1 41 1
M  V30 44 1 41 33
M  V30 45 1 42 22
M  V30 46 1 42 38
M  V30 47 1 1 43 CFG=1
M  V30 48 1 44 2
M  V30 49 1 45 2
M  V30 50 1 46 3
M  V30 51 1 47 3
M  V30 52 1 5 48 CFG=1
M  V30 53 1 6 49 CFG=1
M  V30 54 1 50 9
M  V30 55 1 10 51 CFG=1
M  V30 56 1 52 11
M  V30 57 1 53 11
M  V30 58 1 54 13
M  V30 59 1 55 13
M  V30 60 1 56 14
M  V30 61 1 57 14
M  V30 62 1 58 15
M  V30 63 1 59 15
M  V30 64 1 60 16
M  V30 65 1 61 17
M  V30 66 1 62 17
M  V30 67 1 63 18
M  V30 68 1 64 18
M  V30 69 1 65 18
M  V30 70 1 66 20
M  V30 71 1 67 20
M  V30 72 1 21 68 CFG=1
M  V30 73 1 69 22
M  V30 74 1 70 25
M  V30 75 1 71 25
M  V30 76 1 72 25
M  V30 77 1 73 26
M  V30 78 1 74 27
M  V30 79 1 32 75 CFG=1
M  V30 80 1 76 33
M  V30 81 1 77 33
M  V30 82 1 78 35
M  V30 83 1 79 37
M  V30 84 1 38 80 CFG=1
M  V30 85 1 39 81 CFG=3
M  V30 86 1 82 40
M  V30 87 1 83 40
M  V30 88 1 84 40
M  V30 89 1 85 41
M  V30 90 1 86 41
M  V30 END BOND
M  V30 END CTAB
M  END
>  <i_epik_Tot_Q>  (1) 
0

>  <i_epik_Tot_abs_Q>  (1) 
0

>  <i_i_glide_confnum>  (1) 
7

>  <i_i_glide_lignum>  (1) 
64

>  <i_i_glide_posenum>  (1) 
158

>  <i_i_glide_rotatable_bonds>  (1) 
11

>  <i_lp_mmshare_version>  (1) 
72125

>  <i_m_source_file_index>  (1) 
39

>  <i_f3d_flags>  (1) 
0

>  <num_sample>  (1) 
100

>  <b_lp_Chiralities_Consistent>  (1) 
1

>  <r_epik_Charging_Adjusted_Penalty>  (1) 
0

>  <r_epik_Ionization_Penalty>  (1) 
2.4228423565681287e-05

>  <r_epik_Ionization_Penalty_Charging>  (1) 
0

>  <r_epik_Ionization_Penalty_Neutral>  (1) 
2.4228423565681287e-05

>  <r_epik_State_Penalty>  (1) 
-0

>  <r_glide_ring_energy>  (1) 
0.27259175540770147

>  <r_i_docking_score>  (1) 
-5.1489523205227297

>  <r_i_glide_ecoul>  (1) 
-7.651568826340176

>  <r_i_glide_eff_state_penalty>  (1) 
-0

>  <r_i_glide_einternal>  (1) 
2.564925800135029

>  <r_i_glide_emodel>  (1) 
-34.275107416131668

>  <r_i_glide_emodel_strain>  (1) 
2.1185012939063625

>  <r_i_glide_energy>  (1) 
-14.634594605732252

>  <r_i_glide_erotb>  (1) 
0.27413222911568258

>  <r_i_glide_esite>  (1) 
-0.0049444766138208047

>  <r_i_glide_evdw>  (1) 
-6.9830257793920758

>  <r_i_glide_gscore>  (1) 
-5.1489523205227297

>  <r_i_glide_gscore_strain>  (1) 
0

>  <r_i_glide_hbond>  (1) 
-0.58517025119490507

>  <r_i_glide_ligand_efficiency>  (1) 
-0.1225941028695888

>  <r_i_glide_ligand_efficiency_ln>  (1) 
-1.0868111825806006

>  <r_i_glide_ligand_efficiency_sa>  (1) 
-0.4261403680806411

>  <r_i_glide_lipo>  (1) 
-2.1943340984117596

>  <r_i_glide_metal>  (1) 
-0

>  <r_i_glide_rewards>  (1) 
-1.1417491104972963

>  <r_lp_Energy>  (1) 
66.758932000000001

>  <r_lp_tautomer_probability>  (1) 
1

>  <s_epik_Chemistry_Notes>  (1) 
This compound contains an acetal/aminal-like group ( X-CH(R)-Y where X, Y are N, S, or O) that may be acid/base labile, releasing an aldehyde.

>  <s_epik_cmdline>  (1) 
J2VwaWtfcHl0aG9uJywgJy1waHQnLCAnMS4wJywgJy1waCcsICc3LjQnLCAnLXRuJywgJzgnLCAnLW1hJywgJzUwMCcsICctaW1hZScsICc8aW5maWxlLm1hZT4nLCAnLW9tYWUnLCAnPG91dGZpbGUubWFlPic=

>  <s_epik_input>  (1) 
W09IXVtDQEBIXTFbQ0gyXVtDQEhdKFtDSDNdKVtDSDJdTihOKFtDQEBIXShbQ0gyXTIpQzIoRilGKVtDQEhdKFtDSDNdKU9bT0hdKS9bQ0hdPUMoW0NASF0oW0NIMl0zKVtPSF0pXFtDSDJdW0NAQF0xKFtDSDNdKVtDQEBIXShbQ0BdMzRbT0hdKVtDSDJdW0NIMl1bQ0BASF0oW0NIMl00KVtDSDJdT1tDQEBIXTVbQ0hdPVtDSF1bQ0gyXU9DNShGKUY=

>  <s_glide_docking_method>  (1) 
confgen

>  <s_i_glide_gridfile>  (1) 
gpcr_drd2_6luq_protein_autoprepared_prepared

>  <s_lp_Force_Field>  (1) 
S-OPLS

>  <s_lp_Variant>  (1) 
DiffSBDD_38-1

>  <s_m_source_file>  (1) 
generated_generic_title2_ligand_DiffSBDD_2026-06-23_prepared.sdf

>  <GenAI_Model>  (1) 
DiffSBDD

>  <Protein>  (1) 
generic_title2

$$$$
DiffSBDD_9
     RDKit          3D

  0  0  0  0  0  0  0  0  0  0999 V3000
M  V30 BEGIN CTAB
M  V30 COUNTS 65 70 0 0 1
M  V30 BEGIN ATOM
M  V30 1 C 16.921682 5.146570 -16.226040 0
M  V30 2 O 18.131813 7.829768 -18.427115 0
M  V30 3 C 15.529965 5.232676 -16.423417 0
M  V30 4 C 8.631638 5.817105 -10.496345 0 CFG=2
M  V30 5 C 9.650061 5.579329 -8.159400 0
M  V30 6 C 8.823160 5.198964 -17.960647 0
M  V30 7 C 13.104162 6.357112 -18.937242 0 CFG=2
M  V30 8 C 12.754028 7.793368 -19.237097 0
M  V30 9 C 9.744135 7.968851 -7.662620 0
M  V30 10 O 7.369700 5.176973 -15.045562 0
M  V30 11 C 17.787942 6.021999 -16.896998 0
M  V30 12 C 8.453901 6.635360 -11.775192 0
M  V30 13 C 10.087940 5.630061 -18.812554 0
M  V30 14 O 7.675163 5.255567 -18.397589 0
M  V30 15 C 9.642548 6.378855 -9.465510 0 CFG=2
M  V30 16 N 9.375415 7.771641 -9.076657 0 CHG=1
M  V30 17 N 11.081997 5.347861 -17.709241 0
M  V30 18 C 8.197392 4.196981 -15.659296 0
M  V30 19 C 9.910109 6.581539 -7.037096 0
M  V30 20 C 10.495971 4.845664 -16.578151 0
M  V30 21 C 15.873680 7.093056 -17.985967 0
M  V30 22 C 13.895576 8.727207 -18.765367 0
M  V30 23 O 8.189126 5.993877 -14.089487 0
M  V30 24 C 9.207153 4.748887 -16.664897 0
M  V30 25 C 8.618796 4.333662 -12.301883 0
M  V30 26 C 15.325815 8.166854 -18.964274 0
M  V30 27 C 12.509720 5.291642 -18.024546 0 CFG=2
M  V30 28 C 13.502468 6.289991 -17.485887 0 CFG=1
M  V30 29 C 7.895748 5.609375 -12.750773 0 CFG=1
M  V30 30 C 14.987856 6.199314 -17.297650 0
M  V30 31 O 9.122906 4.578920 -10.988869 0
M  V30 32 C 17.274062 6.990019 -17.776096 0
M  V30 33 H 17.326488 4.405717 -15.555153 0
M  V30 34 H 17.713458 8.348657 -19.096252 0
M  V30 35 H 14.873058 4.556021 -15.897413 0
M  V30 36 H 7.656850 5.626814 -10.040333 0
M  V30 37 H 8.686096 5.094648 -7.996605 0
M  V30 38 H 10.405356 4.795299 -8.184731 0
M  V30 39 H 13.791140 5.933926 -19.669589 0
M  V30 40 H 11.817201 8.065382 -18.755509 0
M  V30 41 H 12.601326 7.893789 -20.311335 0
M  V30 42 H 8.980717 8.559258 -7.154774 0
M  V30 43 H 10.682203 8.521000 -7.605060 0
M  V30 44 H 18.854601 5.951041 -16.739531 0
M  V30 45 H 9.421253 7.000477 -12.120736 0
M  V30 46 H 7.794591 7.493080 -11.637077 0
M  V30 47 H 10.053236 6.681323 -19.098788 0
M  V30 48 H 10.236943 4.986286 -19.680653 0
M  V30 49 H 10.638743 6.389410 -9.892385 0
M  V30 50 H 9.848824 8.422911 -9.683729 0
M  V30 51 H 7.541507 3.508495 -16.192183 0
M  V30 52 H 8.686754 3.591697 -14.906745 0
M  V30 53 H 9.206621 6.428909 -6.217417 0
M  V30 54 H 10.916096 6.453937 -6.634481 0
M  V30 55 H 11.135615 4.563133 -15.754123 0
M  V30 56 H 13.774658 9.001367 -17.716964 0
M  V30 57 H 13.802222 9.664027 -19.315631 0
M  V30 58 H 7.957330 3.467278 -12.320740 0
M  V30 59 H 9.477570 4.116460 -12.937518 0
M  V30 60 H 15.982709 9.034218 -18.894720 0
M  V30 61 H 15.439488 7.794537 -19.984781 0
M  V30 62 H 12.846808 4.262338 -18.139460 0
M  V30 63 H 13.087795 6.996367 -16.768926 0
M  V30 64 H 6.819412 5.514701 -12.596012 0
M  V30 65 H 8.354291 7.903244 -9.185100 0
M  V30 END ATOM
M  V30 BEGIN BOND
M  V30 1 1 3 1
M  V30 2 1 8 7
M  V30 3 2 11 1
M  V30 4 1 12 4
M  V30 5 1 13 6
M  V30 6 2 14 6
M  V30 7 1 15 4
M  V30 8 1 15 5
M  V30 9 1 16 9
M  V30 10 1 16 15
M  V30 11 1 17 13
M  V30 12 1 18 10
M  V30 13 1 19 5
M  V30 14 1 19 9
M  V30 15 1 20 17
M  V30 16 1 22 8
M  V30 17 1 23 10
M  V30 18 1 24 6
M  V30 19 1 24 18
M  V30 20 2 24 20
M  V30 21 1 26 21
M  V30 22 1 26 22
M  V30 23 1 27 7
M  V30 24 1 27 17
M  V30 25 1 28 7
M  V30 26 1 28 27
M  V30 27 1 29 12
M  V30 28 1 29 23
M  V30 29 1 29 25
M  V30 30 2 30 3
M  V30 31 1 30 21
M  V30 32 1 30 28
M  V30 33 1 31 4
M  V30 34 1 31 25
M  V30 35 1 32 2
M  V30 36 1 32 11
M  V30 37 2 32 21
M  V30 38 1 33 1
M  V30 39 1 34 2
M  V30 40 1 35 3
M  V30 41 1 4 36 CFG=1
M  V30 42 1 37 5
M  V30 43 1 38 5
M  V30 44 1 7 39 CFG=3
M  V30 45 1 40 8
M  V30 46 1 41 8
M  V30 47 1 42 9
M  V30 48 1 43 9
M  V30 49 1 44 11
M  V30 50 1 45 12
M  V30 51 1 46 12
M  V30 52 1 47 13
M  V30 53 1 48 13
M  V30 54 1 15 49 CFG=3
M  V30 55 1 50 16
M  V30 56 1 51 18
M  V30 57 1 52 18
M  V30 58 1 53 19
M  V30 59 1 54 19
M  V30 60 1 55 20
M  V30 61 1 56 22
M  V30 62 1 57 22
M  V30 63 1 58 25
M  V30 64 1 59 25
M  V30 65 1 60 26
M  V30 66 1 61 26
M  V30 67 1 27 62 CFG=3
M  V30 68 1 28 63 CFG=1
M  V30 69 1 29 64 CFG=3
M  V30 70 1 65 16
M  V30 END BOND
M  V30 END CTAB
M  END
>  <i_epik_Tot_Q>  (1) 
1

>  <i_epik_Tot_abs_Q>  (1) 
1

>  <i_i_glide_confnum>  (1) 
281

>  <i_i_glide_lignum>  (1) 
16

>  <i_i_glide_posenum>  (1) 
205

>  <i_i_glide_rotatable_bonds>  (1) 
7

>  <i_lp_mmshare_version>  (1) 
72125

>  <i_m_source_file_index>  (1) 
10

>  <i_f3d_flags>  (1) 
0

>  <num_sample>  (1) 
100

>  <b_lp_Chiralities_Consistent>  (1) 
1

>  <r_epik_Charging_Adjusted_Penalty>  (1) 
0.13693623870853466

>  <r_epik_Ionization_Penalty>  (1) 
0.069127027575875924

>  <r_epik_Ionization_Penalty_Charging>  (1) 
0.068788428358952047

>  <r_epik_Ionization_Penalty_Neutral>  (1) 
0.00033859921692387109

>  <r_epik_State_Penalty>  (1) 
0.06814781034958263

>  <r_glide_ring_energy>  (1) 
0.028054261374209404

>  <r_i_docking_score>  (1) 
-5.1448990962177881

>  <r_i_glide_ecoul>  (1) 
-10.742383318958234

>  <r_i_glide_eff_state_penalty>  (1) 
0.06814781034958263

>  <r_i_glide_einternal>  (1) 
1.9317386169423381

>  <r_i_glide_emodel>  (1) 
-48.553038648686623

>  <r_i_glide_emodel_strain>  (1) 
0.63513813009808473

>  <r_i_glide_energy>  (1) 
-41.836658222211426

>  <r_i_glide_erotb>  (1) 
0.61474503349198251

>  <r_i_glide_esite>  (1) 
-0.10000000000000001

>  <r_i_glide_evdw>  (1) 
-31.09427490325319

>  <r_i_glide_gscore>  (1) 
-5.2130469065673708

>  <r_i_glide_gscore_strain>  (1) 
0

>  <r_i_glide_hbond>  (1) 
-0.14355519686524826

>  <r_i_glide_ligand_efficiency>  (1) 
-0.16077809675680588

>  <r_i_glide_ligand_efficiency_ln>  (1) 
-1.1520831522957435

>  <r_i_glide_ligand_efficiency_sa>  (1) 
-0.51043863985039728

>  <r_i_glide_lipo>  (1) 
-1.2437214477044609

>  <r_i_glide_metal>  (1) 
-0

>  <r_i_glide_rewards>  (1) 
-1.1744440524832496

>  <r_lp_Energy>  (1) 
34.162976

>  <r_lp_tautomer_probability>  (1) 
0.98846045845453334

>  <s_epik_Chemistry_Notes>  (1) 
This compound has an imine and may undergo hydrolysis.

>  <s_epik_cmdline>  (1) 
J2VwaWtfcHl0aG9uJywgJy1waHQnLCAnMS4wJywgJy1waCcsICc3LjQnLCAnLXRuJywgJzgnLCAnLW1hJywgJzUwMCcsICctaW1hZScsICc8aW5maWxlLm1hZT4nLCAnLW9tYWUnLCAnPG91dGZpbGUubWFlPic=

>  <s_epik_input>  (1) 
W2NIXTFbY0hdW2NIXWMoW09IXSljKFtDSDJdW0NIMl1bQ0gyXTIpYzFbQ0BASF0oW0NASF0yMylbQ0hdM24oW2NIXWM0W09IXSlbY0hdYzRbQ0gyXU9PW0NAQEhdKFtDSDJdTzUpW0NIMl1bQ0BASF01W0NAQEhdNltDSDJdW0NIMl1bQ0gyXVtOSF02

>  <s_glide_docking_method>  (1) 
confgen

>  <s_i_glide_gridfile>  (1) 
gpcr_drd2_6luq_protein_autoprepared_prepared

>  <s_lp_Force_Field>  (1) 
S-OPLS

>  <s_lp_Variant>  (1) 
DiffSBDD_9-1

>  <s_m_source_file>  (1) 
generated_generic_title2_ligand_DiffSBDD_2026-06-23_prepared.sdf

>  <GenAI_Model>  (1) 
DiffSBDD

>  <Protein>  (1) 
generic_title2

$$$$
DiffSBDD_70
     RDKit          3D

  0  0  0  0  0  0  0  0  0  0999 V3000
M  V30 BEGIN CTAB
M  V30 COUNTS 74 78 0 0 1
M  V30 BEGIN ATOM
M  V30 1 C 8.107653 0.508189 -16.210031 0
M  V30 2 C 10.360171 5.990232 -12.844232 0
M  V30 3 C 9.435583 3.064091 -17.585008 0
M  V30 4 C 9.318624 7.017832 -12.385063 0
M  V30 5 C 17.550093 6.799085 -17.760759 0
M  V30 6 N 16.635701 4.790151 -16.784973 0
M  V30 7 C 5.843668 4.036876 -12.111875 0
M  V30 8 C 7.440659 5.747684 -11.099065 0 CFG=1
M  V30 9 C 7.484414 5.028629 -9.760008 0
M  V30 10 C 7.195766 2.185314 -18.394955 0
M  V30 11 C 6.960390 5.064111 -12.397709 0 CFG=2
M  V30 12 O 12.790702 6.259332 -17.046777 0
M  V30 13 C 8.757381 5.405558 -10.459690 0 CFG=2
M  V30 14 C 6.828413 5.833595 -14.890900 0
M  V30 15 C 6.409189 6.051108 -13.431982 0
M  V30 16 C 7.995733 2.756385 -17.202834 0 CFG=1
M  V30 17 C 16.044055 8.604303 -18.419105 0
M  V30 18 C 11.676125 5.444831 -16.688573 0
M  V30 19 O 7.937209 1.912913 -16.041925 0
M  V30 20 Cl 18.694396 9.019448 -18.833714 0
M  V30 21 C 7.326036 4.429260 -15.310015 0
M  V30 22 C 8.583749 5.243814 -17.417319 0 CFG=2
M  V30 23 C 17.344913 8.083691 -18.306363 0
M  V30 24 C 5.598761 7.062460 -13.080172 0
M  V30 25 C 8.083006 5.933646 -18.699209 0
M  V30 26 N 9.687403 4.355069 -17.674308 0
M  V30 27 C 14.947902 7.844448 -17.984931 0
M  V30 28 C 11.008707 4.917032 -17.967688 0
M  V30 29 C 16.457165 6.020706 -17.317681 0
M  V30 30 N 14.254906 4.553343 -16.453919 0
M  V30 31 C 15.525840 4.146419 -16.385371 0
M  V30 32 N 8.575275 6.682676 -11.148739 0 CFG=1 CHG=1
M  V30 33 O 10.266212 2.175419 -17.776154 0
M  V30 34 C 7.529487 4.229361 -16.834847 0 CFG=1
M  V30 35 C 14.085768 5.783189 -16.982853 0
M  V30 36 C 15.157713 6.561921 -17.436364 0
M  V30 37 H 8.175175 0.036396 -15.229562 0
M  V30 38 H 7.251366 0.065391 -16.719275 0
M  V30 39 H 9.009082 0.250283 -16.763314 0
M  V30 40 H 10.976214 6.390054 -13.645597 0
M  V30 41 H 11.033902 5.744392 -12.030509 0
M  V30 42 H 9.912736 5.068969 -13.213224 0
M  V30 43 H 8.633832 7.286808 -13.183508 0
M  V30 44 H 9.851847 7.942035 -12.162054 0
M  V30 45 H 18.552637 6.407758 -17.678206 0
M  V30 46 H 5.427244 3.624462 -13.030132 0
M  V30 47 H 6.192411 3.190220 -11.526980 0
M  V30 48 H 5.019211 4.496353 -11.565717 0
M  V30 49 H 7.268183 5.590305 -8.856964 0
M  V30 50 H 7.199595 3.990232 -9.711974 0
M  V30 51 H 7.173317 2.883711 -19.231954 0
M  V30 52 H 7.623933 1.254993 -18.769907 0
M  V30 53 H 6.162164 1.987362 -18.109360 0
M  V30 54 H 7.808864 4.516373 -12.791199 0
M  V30 55 H 9.316446 4.632125 -10.979162 0
M  V30 56 H 5.977824 6.103879 -15.518001 0
M  V30 57 H 7.592448 6.578129 -15.100013 0
M  V30 58 H 15.888362 9.588676 -18.837609 0
M  V30 59 H 10.998394 6.111904 -16.159438 0
M  V30 60 H 11.876962 4.637235 -15.985703 0
M  V30 61 H 8.275353 4.206765 -14.824612 0
M  V30 62 H 6.605475 3.690244 -14.961338 0
M  V30 63 H 8.880121 5.990137 -16.688529 0
M  V30 64 H 5.306677 7.213092 -12.050524 0
M  V30 65 H 5.217025 7.750712 -13.819301 0
M  V30 66 H 7.179098 6.509280 -18.497980 0
M  V30 67 H 8.822507 6.630385 -19.094072 0
M  V30 68 H 7.851018 5.213144 -19.483667 0
M  V30 69 H 13.946864 8.244942 -18.067391 0
M  V30 70 H 11.660550 4.187673 -18.452149 0
M  V30 71 H 10.898336 5.731922 -18.682650 0
M  V30 72 H 15.680859 3.166964 -15.957025 0
M  V30 73 H 6.575432 4.425499 -17.315337 0
M  V30 74 H 8.326141 7.458488 -10.537186 0
M  V30 END ATOM
M  V30 BEGIN BOND
M  V30 1 1 4 2
M  V30 2 1 8 9 CFG=1
M  V30 3 1 11 7
M  V30 4 1 11 8
M  V30 5 1 13 8
M  V30 6 1 13 9
M  V30 7 1 15 11
M  V30 8 1 15 14
M  V30 9 1 16 3
M  V30 10 1 16 10
M  V30 11 1 18 12
M  V30 12 1 19 1
M  V30 13 1 16 19 CFG=1
M  V30 14 1 21 14
M  V30 15 2 23 5
M  V30 16 1 23 17
M  V30 17 1 23 20
M  V30 18 2 24 15
M  V30 19 1 25 22
M  V30 20 1 26 3
M  V30 21 1 26 22
M  V30 22 2 27 17
M  V30 23 1 28 18
M  V30 24 1 28 26
M  V30 25 1 29 5
M  V30 26 2 29 6
M  V30 27 1 31 6
M  V30 28 2 31 30
M  V30 29 1 32 4
M  V30 30 1 32 8
M  V30 31 1 32 13
M  V30 32 2 33 3
M  V30 33 1 34 16
M  V30 34 1 34 21
M  V30 35 1 34 22
M  V30 36 1 35 12
M  V30 37 1 35 30
M  V30 38 1 36 27
M  V30 39 1 36 29
M  V30 40 2 36 35
M  V30 41 1 37 1
M  V30 42 1 38 1
M  V30 43 1 39 1
M  V30 44 1 40 2
M  V30 45 1 41 2
M  V30 46 1 42 2
M  V30 47 1 43 4
M  V30 48 1 44 4
M  V30 49 1 45 5
M  V30 50 1 46 7
M  V30 51 1 47 7
M  V30 52 1 48 7
M  V30 53 1 49 9
M  V30 54 1 50 9
M  V30 55 1 51 10
M  V30 56 1 52 10
M  V30 57 1 53 10
M  V30 58 1 11 54 CFG=3
M  V30 59 1 13 55 CFG=3
M  V30 60 1 56 14
M  V30 61 1 57 14
M  V30 62 1 58 17
M  V30 63 1 59 18
M  V30 64 1 60 18
M  V30 65 1 61 21
M  V30 66 1 62 21
M  V30 67 1 22 63 CFG=1
M  V30 68 1 64 24
M  V30 69 1 65 24
M  V30 70 1 66 25
M  V30 71 1 67 25
M  V30 72 1 68 25
M  V30 73 1 69 27
M  V30 74 1 70 28
M  V30 75 1 71 28
M  V30 76 1 72 31
M  V30 77 1 34 73 CFG=3
M  V30 78 1 32 74 CFG=1
M  V30 END BOND
M  V30 END CTAB
M  END
>  <i_epik_Tot_Q>  (1) 
1

>  <i_epik_Tot_abs_Q>  (1) 
1

>  <i_i_glide_confnum>  (1) 
135

>  <i_i_glide_lignum>  (1) 
113

>  <i_i_glide_posenum>  (1) 
270

>  <i_i_glide_rotatable_bonds>  (1) 
11

>  <i_lp_mmshare_version>  (1) 
72125

>  <i_m_source_file_index>  (1) 
71

>  <i_f3d_flags>  (1) 
0

>  <num_sample>  (1) 
100

>  <b_lp_Chiralities_Consistent>  (1) 
1

>  <r_epik_Charging_Adjusted_Penalty>  (1) 
0.028882640618341202

>  <r_epik_Ionization_Penalty>  (1) 
0.014531529159765241

>  <r_epik_Ionization_Penalty_Charging>  (1) 
0.014441320309170608

>  <r_epik_Ionization_Penalty_Neutral>  (1) 
9.020885059463329e-05

>  <r_epik_State_Penalty>  (1) 
0.014441320309170594

>  <r_glide_ring_energy>  (1) 
0

>  <r_i_docking_score>  (1) 
-5.1429465241591448

>  <r_i_glide_ecoul>  (1) 
-7.8453253926445985

>  <r_i_glide_eff_state_penalty>  (1) 
0.014441320309170594

>  <r_i_glide_einternal>  (1) 
5.5852570933038699

>  <r_i_glide_emodel>  (1) 
-55.254581112190472

>  <r_i_glide_emodel_strain>  (1) 
0.97768719200222165

>  <r_i_glide_energy>  (1) 
-42.966401651089747

>  <r_i_glide_erotb>  (1) 
0.62084064417162321

>  <r_i_glide_esite>  (1) 
-0.098611108475316817

>  <r_i_glide_evdw>  (1) 
-35.12107625844515

>  <r_i_glide_gscore>  (1) 
-5.1573878444683157

>  <r_i_glide_gscore_strain>  (1) 
0

>  <r_i_glide_hbond>  (1) 
-0.46519775053107693

>  <r_i_glide_ligand_efficiency>  (1) 
-0.14285962567108734

>  <r_i_glide_ligand_efficiency_ln>  (1) 
-1.122051985213673

>  <r_i_glide_ligand_efficiency_sa>  (1) 
-0.47171209077024973

>  <r_i_glide_lipo>  (1) 
-1.7908983522295323

>  <r_i_glide_metal>  (1) 
-0

>  <r_i_glide_rewards>  (1) 
-0.49066865558506645

>  <r_lp_Energy>  (1) 
33.740380000000002

>  <r_lp_tautomer_probability>  (1) 
1

>  <s_epik_cmdline>  (1) 
J2VwaWtfcHl0aG9uJywgJy1waHQnLCAnMS4wJywgJy1waCcsICc3LjQnLCAnLXRuJywgJzgnLCAnLW1hJywgJzUwMCcsICctaW1hZScsICc8aW5maWxlLm1hZT4nLCAnLW9tYWUnLCAnPG91dGZpbGUubWFlPic=

>  <s_epik_input>  (1) 
W2NIXTFjKENsKVtjSF1bY0hdYyhjMTIpYyhuW2NIXW4yKU9bQ0gyXVtDSDJdTihDKD1PKVtDQEBdMyhbQ0gzXSlPW0NIM10pW0NAQEhdKFtDSDNdKVtDQEBIXTNbQ0gyXVtDSDJdQyg9W0NIMl0pW0NASF0oW0NIM10pQzQ1W0NASF0oW0NIMl00KU41W0NIMl1bQ0gzXQ==

>  <s_glide_docking_method>  (1) 
confgen

>  <s_i_glide_gridfile>  (1) 
gpcr_drd2_6luq_protein_autoprepared_prepared

>  <s_lp_Force_Field>  (1) 
S-OPLS

>  <s_lp_Variant>  (1) 
DiffSBDD_70-1

>  <s_m_source_file>  (1) 
generated_generic_title2_ligand_DiffSBDD_2026-06-23_prepared.sdf

>  <GenAI_Model>  (1) 
DiffSBDD

>  <Protein>  (1) 
generic_title2

$$$$
DiffSBDD_78
     RDKit          3D

  0  0  0  0  0  0  0  0  0  0999 V3000
M  V30 BEGIN CTAB
M  V30 COUNTS 81 85 0 0 1
M  V30 BEGIN ATOM
M  V30 1 C 5.257099 6.644698 -18.692064 0 CFG=2
M  V30 2 C 5.798178 7.542001 -19.820588 0
M  V30 3 C 5.891955 3.347881 -12.418592 0 CFG=1
M  V30 4 C 7.780497 4.854340 -11.048782 0 CFG=2
M  V30 5 C 3.775424 6.868493 -18.414708 0
M  V30 6 N 8.975406 6.262888 -9.301120 0 CHG=1
M  V30 7 C 6.547698 5.582580 -11.652807 0 CFG=1
M  V30 8 C 7.286382 4.778042 -13.971282 0 CFG=1
M  V30 9 N 5.892696 6.926741 -17.407051 0 CFG=1 CHG=1
M  V30 10 C 4.927568 6.678528 -16.324287 0
M  V30 11 N 8.499530 5.063981 -14.799262 0 CFG=1 CHG=1
M  V30 12 C 7.634910 2.142069 -13.693625 0
M  V30 13 C 9.021917 5.717402 -10.677646 0
M  V30 14 C 9.957636 6.924589 -7.213110 0
M  V30 15 O 8.180303 3.812974 -11.976915 0
M  V30 16 C 9.775389 5.044599 -14.072098 0
M  V30 17 C 11.263565 7.268765 -6.494749 0 CFG=1
M  V30 18 C 4.653548 4.072642 -12.903919 0
M  V30 19 C 7.271606 3.500857 -13.054476 0 CFG=2
M  V30 20 F 12.035880 6.196864 -6.649385 0
M  V30 21 C 3.575946 7.025337 -16.911022 0
M  V30 22 C 6.627383 1.570528 -14.701296 0
M  V30 23 O 10.673577 7.966675 -9.238561 0
M  V30 24 C 6.900555 6.019052 -13.099827 0
M  V30 25 C 11.896624 8.523940 -7.156344 0 CFG=1
M  V30 26 C 7.455254 4.849557 -17.123121 0
M  V30 27 C 10.337954 6.736521 -8.690429 0 CFG=2
M  V30 28 C 7.238623 6.378343 -17.182782 0
M  V30 29 C 8.581770 4.425059 -16.151363 0
M  V30 30 C 11.078984 7.439286 -4.983942 0
M  V30 31 C 11.910431 8.443204 -8.703121 0
M  V30 32 C 5.417856 4.557821 -11.672012 0 CFG=1
M  V30 33 F 11.206638 9.590359 -6.778627 0
M  V30 34 H 5.420896 5.595176 -18.944178 0
M  V30 35 H 5.324644 7.288288 -20.770752 0
M  V30 36 H 5.602854 8.597065 -19.623334 0
M  V30 37 H 6.874543 7.422500 -19.953924 0
M  V30 38 H 5.775739 2.414322 -11.873854 0
M  V30 39 H 7.457198 4.350392 -10.135040 0
M  V30 40 H 3.264287 5.990291 -18.785025 0
M  V30 41 H 3.396176 7.758172 -18.923051 0
M  V30 42 H 8.282439 7.021401 -9.274021 0
M  V30 43 H 6.232013 6.420980 -11.041196 0
M  V30 44 H 6.500179 4.631589 -14.701276 0
M  V30 45 H 4.951391 5.631434 -16.032971 0
M  V30 46 H 5.143852 7.293024 -15.451336 0
M  V30 47 H 7.778021 1.404885 -12.901719 0
M  V30 48 H 8.575273 2.211801 -14.196911 0
M  V30 49 H 9.890357 5.066850 -10.735335 0
M  V30 50 H 9.180626 6.547328 -11.359987 0
M  V30 51 H 9.221937 7.722114 -7.111399 0
M  V30 52 H 9.526011 6.004422 -6.812083 0
M  V30 53 H 9.958408 4.089274 -13.586387 0
M  V30 54 H 10.587871 5.251896 -14.763599 0
M  V30 55 H 9.816723 5.821689 -13.316306 0
M  V30 56 H 3.693908 3.590264 -12.785062 0
M  V30 57 H 4.653628 4.728352 -13.762870 0
M  V30 58 H 2.788124 6.380470 -16.519969 0
M  V30 59 H 3.314905 8.058554 -16.671456 0
M  V30 60 H 6.975318 0.610521 -15.085186 0
M  V30 61 H 6.500212 2.229923 -15.557737 0
M  V30 62 H 5.660214 1.386562 -14.237238 0
M  V30 63 H 6.045949 6.541275 -13.532408 0
M  V30 64 H 7.696679 6.760541 -13.073954 0
M  V30 65 H 12.900808 8.747871 -6.792214 0
M  V30 66 H 7.687008 4.476367 -18.121568 0
M  V30 67 H 6.575685 4.312342 -16.833422 0
M  V30 68 H 11.100049 5.990227 -8.842904 0
M  V30 69 H 7.375470 6.790014 -16.188032 0
M  V30 70 H 7.912536 6.790174 -17.939153 0
M  V30 71 H 9.528429 4.702297 -16.619380 0
M  V30 72 H 8.606283 3.338524 -16.066071 0
M  V30 73 H 10.498080 8.334673 -4.784968 0
M  V30 74 H 10.565654 6.580406 -4.540711 0
M  V30 75 H 12.031311 7.568088 -4.468071 0
M  V30 76 H 12.709596 7.780561 -9.031001 0
M  V30 77 H 12.133877 9.420350 -9.128458 0
M  V30 78 H 4.975844 4.353577 -10.696689 0
M  V30 79 H 5.997865 7.932781 -17.403538 0
M  V30 80 H 8.402970 6.042822 -15.024151 0
M  V30 81 H 8.607653 5.532471 -8.711047 0
M  V30 END ATOM
M  V30 BEGIN BOND
M  V30 1 1 2 1
M  V30 2 1 5 1
M  V30 3 1 7 4
M  V30 4 1 9 1
M  V30 5 1 10 9
M  V30 6 1 11 8
M  V30 7 1 13 4
M  V30 8 1 13 6
M  V30 9 1 15 4
M  V30 10 1 16 11
M  V30 11 1 17 14
M  V30 12 1 18 3
M  V30 13 1 19 3
M  V30 14 1 19 8
M  V30 15 1 19 12 CFG=3
M  V30 16 1 19 15
M  V30 17 1 17 20 CFG=1
M  V30 18 1 21 5
M  V30 19 1 21 10
M  V30 20 1 22 12
M  V30 21 1 24 7
M  V30 22 1 24 8
M  V30 23 1 25 17
M  V30 24 1 27 6
M  V30 25 1 27 14
M  V30 26 1 27 23
M  V30 27 1 28 9
M  V30 28 1 28 26
M  V30 29 1 29 11
M  V30 30 1 29 26
M  V30 31 1 30 17
M  V30 32 1 31 23
M  V30 33 1 31 25
M  V30 34 1 32 3
M  V30 35 1 32 7
M  V30 36 1 32 18
M  V30 37 1 33 25
M  V30 38 1 1 34 CFG=3
M  V30 39 1 35 2
M  V30 40 1 36 2
M  V30 41 1 37 2
M  V30 42 1 3 38 CFG=1
M  V30 43 1 4 39 CFG=1
M  V30 44 1 40 5
M  V30 45 1 41 5
M  V30 46 1 42 6
M  V30 47 1 7 43 CFG=1
M  V30 48 1 8 44 CFG=3
M  V30 49 1 45 10
M  V30 50 1 46 10
M  V30 51 1 47 12
M  V30 52 1 48 12
M  V30 53 1 49 13
M  V30 54 1 50 13
M  V30 55 1 51 14
M  V30 56 1 52 14
M  V30 57 1 53 16
M  V30 58 1 54 16
M  V30 59 1 55 16
M  V30 60 1 56 18
M  V30 61 1 57 18
M  V30 62 1 58 21
M  V30 63 1 59 21
M  V30 64 1 60 22
M  V30 65 1 61 22
M  V30 66 1 62 22
M  V30 67 1 63 24
M  V30 68 1 64 24
M  V30 69 1 25 65 CFG=1
M  V30 70 1 66 26
M  V30 71 1 67 26
M  V30 72 1 27 68 CFG=1
M  V30 73 1 69 28
M  V30 74 1 70 28
M  V30 75 1 71 29
M  V30 76 1 72 29
M  V30 77 1 73 30
M  V30 78 1 74 30
M  V30 79 1 75 30
M  V30 80 1 76 31
M  V30 81 1 77 31
M  V30 82 1 32 78 CFG=1
M  V30 83 1 9 79 CFG=3
M  V30 84 1 11 80 CFG=3
M  V30 85 1 81 6
M  V30 END BOND
M  V30 END CTAB
M  END
>  <i_epik_Tot_Q>  (1) 
3

>  <i_epik_Tot_abs_Q>  (1) 
3

>  <i_i_glide_confnum>  (1) 
129

>  <i_i_glide_lignum>  (1) 
136

>  <i_i_glide_posenum>  (1) 
5

>  <i_i_glide_rotatable_bonds>  (1) 
9

>  <i_lp_mmshare_version>  (1) 
72125

>  <i_m_source_file_index>  (1) 
79

>  <i_f3d_flags>  (1) 
0

>  <num_sample>  (1) 
100

>  <b_lp_Chiralities_Consistent>  (1) 
1

>  <r_epik_Charging_Adjusted_Penalty>  (1) 
1.7942086838225126

>  <r_epik_Ionization_Penalty>  (1) 
0.94562311220168549

>  <r_epik_Ionization_Penalty_Charging>  (1) 
0.94562311220168382

>  <r_epik_Ionization_Penalty_Neutral>  (1) 
1.710257484888175e-15

>  <r_epik_State_Penalty>  (1) 
0.84858557162082893

>  <r_glide_ring_energy>  (1) 
0

>  <r_i_docking_score>  (1) 
-5.1379210268810622

>  <r_i_glide_ecoul>  (1) 
-8.9879056338431855

>  <r_i_glide_eff_state_penalty>  (1) 
0.84858557162082893

>  <r_i_glide_einternal>  (1) 
8.4087707972712735

>  <r_i_glide_emodel>  (1) 
-34.003306898655254

>  <r_i_glide_emodel_strain>  (1) 
0.68529435251330995

>  <r_i_glide_energy>  (1) 
-24.196800183714046

>  <r_i_glide_erotb>  (1) 
0.72404097212868179

>  <r_i_glide_esite>  (1) 
-0.14397663087115758

>  <r_i_glide_evdw>  (1) 
-15.208894549870863

>  <r_i_glide_gscore>  (1) 
-5.986506598501891

>  <r_i_glide_gscore_strain>  (1) 
0

>  <r_i_glide_hbond>  (1) 
-0.20000000000000001

>  <r_i_glide_ligand_efficiency>  (1) 
-0.15569457657215341

>  <r_i_glide_ligand_efficiency_ln>  (1) 
-1.1426470336470187

>  <r_i_glide_ligand_efficiency_sa>  (1) 
-0.49939569934934602

>  <r_i_glide_lipo>  (1) 
-2.8352787695984731

>  <r_i_glide_metal>  (1) 
-0

>  <r_i_glide_rewards>  (1) 
-1.4226615975909211

>  <r_lp_Energy>  (1) 
78.428286999999997

>  <s_epik_Chemistry_Notes>  (1) 
This compound contains an acetal/aminal-like group ( X-CH(R)-Y where X, Y are N, S, or O) that may be acid/base labile, releasing an aldehyde.

>  <s_epik_cmdline>  (1) 
J2VwaWtfcHl0aG9uJywgJy1waHQnLCAnMS4wJywgJy1waCcsICc3LjQnLCAnLXRuJywgJzgnLCAnLW1hJywgJzUwMCcsICctaW1hZScsICc8aW5maWxlLm1hZT4nLCAnLW9tYWUnLCAnPG91dGZpbGUubWFlPic=

>  <s_epik_input>  (1) 
W0NIM11bQ0BASF0xW0NIMl1bQ0gyXVtDSDJdTjFbQ0gyXVtDSDJdW0NIMl1OKFtDSDNdKVtDQEBIXTJbQ0gyXVtDQEBIXShbQ0BASF0oW0NIMl0zKVtDQEBIXTNbQ0BAXTI0W0NIMl1bQ0gzXSlbQ0BASF0oTzQpW0NIMl1bTkhdW0NASF0oW0NIMl1bQ0BdNShGKVtDSDNdKU9bQ0gyXVtDQEhdNUY=

>  <s_glide_docking_method>  (1) 
confgen

>  <s_i_glide_gridfile>  (1) 
gpcr_drd2_6luq_protein_autoprepared_prepared

>  <s_lp_Force_Field>  (1) 
S-OPLS

>  <s_lp_Variant>  (1) 
DiffSBDD_78-8

>  <s_m_source_file>  (1) 
generated_generic_title2_ligand_DiffSBDD_2026-06-23_prepared.sdf

>  <GenAI_Model>  (1) 
DiffSBDD

>  <Protein>  (1) 
generic_title2

$$$$
DiffSBDD_45
     RDKit          3D

  0  0  0  0  0  0  0  0  0  0999 V3000
M  V30 BEGIN CTAB
M  V30 COUNTS 68 71 0 0 1
M  V30 BEGIN ATOM
M  V30 1 C 7.942117 6.054092 -13.870834 0 CFG=2
M  V30 2 C 4.110306 6.505363 -16.530864 0
M  V30 3 C 11.228139 7.771010 -5.203370 0 CFG=2
M  V30 4 C 7.985665 5.276639 -12.529051 0
M  V30 5 C 6.536146 6.175676 -14.545095 0 CFG=2
M  V30 6 C 11.439367 10.026276 -3.181404 0
M  V30 7 C 8.619647 4.972944 -10.093325 0
M  V30 8 O 8.947078 5.586474 -14.773859 0
M  V30 9 C 6.477219 6.961902 -15.899336 0
M  V30 10 N 12.173491 7.744021 -4.063825 0
M  V30 11 C 12.985807 8.531020 -1.989655 0
M  V30 12 C 10.333666 8.055589 -9.148759 0
M  V30 13 C 9.684279 7.086996 -9.848020 0
M  V30 14 C 9.687842 5.691075 -7.963469 0
M  V30 15 C 12.237129 7.244742 -1.736273 0
M  V30 16 N 9.321130 5.913932 -9.274084 0
M  V30 17 O 12.975415 8.790235 -7.185029 0
M  V30 18 C 12.543476 8.993325 -3.372940 0 CFG=2
M  V30 19 N 10.657428 7.873505 -7.760410 0
M  V30 20 O 5.727852 6.860821 -13.615360 0
M  V30 21 C 11.833721 6.707096 -3.088921 0
M  V30 22 C 5.662369 7.238558 -18.330000 0
M  V30 23 C 5.528280 6.462970 -17.010407 0
M  V30 24 C 9.280695 7.158916 -11.315923 0
M  V30 25 C 8.719936 4.376452 -15.481603 0
M  V30 26 C 10.807186 6.403936 -5.790100 0
M  V30 27 C 8.580091 5.767652 -11.403405 0
M  V30 28 O 10.975472 10.103241 -6.385008 0
M  V30 29 S 11.599899 8.824485 -6.685054 0
M  V30 30 C 10.342655 6.607817 -7.222904 0
M  V30 31 C 7.325105 3.896688 -12.532928 0
M  V30 32 H 8.225458 7.078711 -13.645288 0
M  V30 33 H 3.767834 7.529843 -16.385275 0
M  V30 34 H 3.409526 5.993826 -17.185116 0
M  V30 35 H 4.173454 5.990223 -15.585196 0
M  V30 36 H 10.305888 8.207160 -4.827279 0
M  V30 37 H 6.107235 5.191436 -14.717869 0
M  V30 38 H 11.684769 10.738002 -2.385113 0
M  V30 39 H 11.164187 10.576624 -4.076483 0
M  V30 40 H 10.574328 9.590211 -2.785417 0
M  V30 41 H 7.618827 4.775032 -9.709535 0
M  V30 42 H 9.183095 4.047074 -10.217308 0
M  V30 43 H 6.418254 8.040644 -15.743406 0
M  V30 44 H 7.375464 6.777094 -16.421241 0
M  V30 45 H 12.773465 9.244861 -1.194118 0
M  V30 46 H 14.055350 8.392357 -1.984940 0
M  V30 47 H 10.644104 9.004441 -9.564956 0
M  V30 48 H 9.417559 4.719112 -7.587480 0
M  V30 49 H 11.322846 7.471762 -1.185579 0
M  V30 50 H 12.840077 6.521694 -1.185943 0
M  V30 51 H 13.371240 9.468107 -3.901799 0
M  V30 52 H 5.822438 6.456457 -12.764822 0
M  V30 53 H 10.775202 6.451434 -3.085097 0
M  V30 54 H 12.373776 5.787727 -3.303712 0
M  V30 55 H 5.375428 8.283953 -18.199603 0
M  V30 56 H 6.679319 7.190402 -18.721779 0
M  V30 57 H 5.006523 6.823425 -19.094949 0
M  V30 58 H 5.774850 5.422638 -17.224236 0
M  V30 59 H 10.151021 7.208447 -11.970915 0
M  V30 60 H 8.594261 7.982354 -11.506916 0
M  V30 61 H 9.620742 4.127507 -16.042627 0
M  V30 62 H 8.514479 3.535962 -14.826163 0
M  V30 63 H 7.909578 4.470689 -16.204667 0
M  V30 64 H 9.994568 5.989926 -5.199808 0
M  V30 65 H 11.645365 5.706543 -5.803802 0
M  V30 66 H 6.669279 3.704784 -13.377018 0
M  V30 67 H 8.089266 3.114686 -12.528894 0
M  V30 68 H 6.715784 3.770487 -11.638197 0
M  V30 END ATOM
M  V30 BEGIN BOND
M  V30 1 1 4 1
M  V30 2 1 5 1
M  V30 3 1 8 1
M  V30 4 1 9 5
M  V30 5 1 10 3
M  V30 6 2 13 12
M  V30 7 1 15 11
M  V30 8 1 16 7
M  V30 9 1 16 13
M  V30 10 1 16 14
M  V30 11 1 18 6
M  V30 12 1 18 10
M  V30 13 1 18 11
M  V30 14 1 19 12
M  V30 15 1 20 5
M  V30 16 1 21 10
M  V30 17 1 21 15
M  V30 18 1 23 2
M  V30 19 1 23 9
M  V30 20 1 23 22
M  V30 21 1 24 13
M  V30 22 1 25 8
M  V30 23 1 26 3
M  V30 24 2 27 4
M  V30 25 1 27 7
M  V30 26 1 27 24
M  V30 27 1 29 3
M  V30 28 2 29 17
M  V30 29 1 29 19
M  V30 30 2 29 28
M  V30 31 2 30 14
M  V30 32 1 30 19
M  V30 33 1 30 26
M  V30 34 1 31 4
M  V30 35 1 1 32 CFG=1
M  V30 36 1 33 2
M  V30 37 1 34 2
M  V30 38 1 35 2
M  V30 39 1 3 36 CFG=1
M  V30 40 1 5 37 CFG=3
M  V30 41 1 38 6
M  V30 42 1 39 6
M  V30 43 1 40 6
M  V30 44 1 41 7
M  V30 45 1 42 7
M  V30 46 1 43 9
M  V30 47 1 44 9
M  V30 48 1 45 11
M  V30 49 1 46 11
M  V30 50 1 47 12
M  V30 51 1 48 14
M  V30 52 1 49 15
M  V30 53 1 50 15
M  V30 54 1 18 51 CFG=3
M  V30 55 1 52 20
M  V30 56 1 53 21
M  V30 57 1 54 21
M  V30 58 1 55 22
M  V30 59 1 56 22
M  V30 60 1 57 22
M  V30 61 1 58 23
M  V30 62 1 59 24
M  V30 63 1 60 24
M  V30 64 1 61 25
M  V30 65 1 62 25
M  V30 66 1 63 25
M  V30 67 1 64 26
M  V30 68 1 65 26
M  V30 69 1 66 31
M  V30 70 1 67 31
M  V30 71 1 68 31
M  V30 END BOND
M  V30 END CTAB
M  END
>  <i_epik_Tot_Q>  (1) 
0

>  <i_epik_Tot_abs_Q>  (1) 
0

>  <i_i_glide_confnum>  (1) 
40

>  <i_i_glide_lignum>  (1) 
73

>  <i_i_glide_posenum>  (1) 
4

>  <i_i_glide_rotatable_bonds>  (1) 
7

>  <i_lp_mmshare_version>  (1) 
72125

>  <i_m_source_file_index>  (1) 
46

>  <i_f3d_flags>  (1) 
0

>  <num_sample>  (1) 
100

>  <b_lp_Chiralities_Consistent>  (1) 
1

>  <r_epik_Charging_Adjusted_Penalty>  (1) 
5.5386030856760706e-14

>  <r_epik_Ionization_Penalty>  (1) 
0.0003901755545231811

>  <r_epik_Ionization_Penalty_Charging>  (1) 
5.5386030856760706e-14

>  <r_epik_Ionization_Penalty_Neutral>  (1) 
0.00039017555446779507

>  <r_epik_State_Penalty>  (1) 
-0

>  <r_glide_ring_energy>  (1) 
2.212502676076058

>  <r_i_docking_score>  (1) 
-5.137614521147789

>  <r_i_glide_ecoul>  (1) 
-1.4429191804160069

>  <r_i_glide_eff_state_penalty>  (1) 
-0

>  <r_i_glide_einternal>  (1) 
6.2636678652801763

>  <r_i_glide_emodel>  (1) 
-18.643814879295753

>  <r_i_glide_emodel_strain>  (1) 
1.9469613314219885

>  <r_i_glide_energy>  (1) 
-22.755267564317059

>  <r_i_glide_erotb>  (1) 
0.39335991316148761

>  <r_i_glide_esite>  (1) 
-0.079680551438727321

>  <r_i_glide_evdw>  (1) 
-21.312348383901053

>  <r_i_glide_gscore>  (1) 
-5.137614521147789

>  <r_i_glide_gscore_strain>  (1) 
0

>  <r_i_glide_hbond>  (1) 
0

>  <r_i_glide_ligand_efficiency>  (1) 
-0.16572950068218675

>  <r_i_glide_ligand_efficiency_ln>  (1) 
-1.1586895234949928

>  <r_i_glide_ligand_efficiency_sa>  (1) 
-0.5206194469735077

>  <r_i_glide_lipo>  (1) 
-3.1672481086790385

>  <r_i_glide_metal>  (1) 
-0

>  <r_i_glide_rewards>  (1) 
-1.0019904779340576

>  <r_lp_Energy>  (1) 
35.233378000000002

>  <r_lp_tautomer_probability>  (1) 
1

>  <s_epik_Chemistry_Notes>  (1) 
This compound has an imine and may undergo hydrolysis.

>  <s_epik_cmdline>  (1) 
J2VwaWtfcHl0aG9uJywgJy1waHQnLCAnMS4wJywgJy1waCcsICc3LjQnLCAnLXRuJywgJzgnLCAnLW1hJywgJzUwMCcsICctaW1hZScsICc8aW5maWxlLm1hZT4nLCAnLW9tYWUnLCAnPG91dGZpbGUubWFlPic=

>  <s_epik_input>  (1) 
W0NIM11bQ0hdKFtDSDNdKVtDSDJdW0NASF0oW09IXSlbQ0BIXShPW0NIM10pL0MoW0NIM10pPUMoW0NIMl0xKS9bQ0gyXU4oQzEyKVtDSF09QzNOKFtDSF09MilTKD1PKSg9TylbQ0BASF0oW0NIMl0zKU40W0NAQEhdKFtDSDNdKVtDSDJdW0NIMl1bQ0gyXTQ=

>  <s_glide_docking_method>  (1) 
confgen

>  <s_i_glide_gridfile>  (1) 
gpcr_drd2_6luq_protein_autoprepared_prepared

>  <s_lp_Force_Field>  (1) 
S-OPLS

>  <s_lp_Variant>  (1) 
DiffSBDD_45-1

>  <s_m_source_file>  (1) 
generated_generic_title2_ligand_DiffSBDD_2026-06-23_prepared.sdf

>  <GenAI_Model>  (1) 
DiffSBDD

>  <Protein>  (1) 
generic_title2

$$$$
DiffSBDD_90
     RDKit          3D

  0  0  0  0  0  0  0  0  0  0999 V3000
M  V30 BEGIN CTAB
M  V30 COUNTS 80 84 0 0 1
M  V30 BEGIN ATOM
M  V30 1 C 8.667830 4.159680 -11.923587 0
M  V30 2 C 8.246015 5.585820 -11.610047 0 CFG=1
M  V30 3 C 10.407368 7.243865 -9.160353 0
M  V30 4 C 11.063105 5.088218 -16.936600 0 CFG=2
M  V30 5 C 10.437296 7.072578 -11.342291 0
M  V30 6 C 10.848259 7.698916 -7.863894 0 CFG=2
M  V30 7 C 8.074365 5.543746 -15.436654 0 CFG=2
M  V30 8 O 8.175401 2.988596 -13.835559 0 CHG=-1
M  V30 9 C 8.817638 4.061918 -13.453856 0 CFG=1
M  V30 10 C 13.436000 5.421210 -17.783294 0
M  V30 11 O 14.608618 2.663624 -16.784656 0
M  V30 12 C 9.335881 6.358570 -10.891569 0
M  V30 13 C 7.775339 7.617092 -13.269620 0 CFG=2
M  V30 14 O 13.871013 1.153673 -18.268694 0 CHG=-1
M  V30 15 O 11.166003 5.971073 -15.985020 0 CHG=-1
M  V30 16 C 8.593367 4.477339 -16.493251 0 CFG=2
M  V30 17 N 10.049541 4.159427 -16.385104 0 CHG=1
M  V30 18 N 7.966533 5.100998 -14.004754 0 CFG=1 CHG=1
M  V30 19 C 11.136894 1.430559 -18.914853 0
M  V30 20 C 8.255199 4.788769 -17.979501 0
M  V30 21 O 7.832672 8.494982 -12.157128 0
M  V30 22 O 6.945151 4.400395 -18.344184 0
M  V30 23 O 5.375364 7.955697 -15.184860 0
M  V30 24 C 6.483830 6.880081 -13.308582 0 CFG=1
M  V30 25 C 13.774576 2.205302 -17.597720 0
M  V30 26 C 6.662057 6.045595 -15.802608 0
M  V30 27 N 11.029399 7.590602 -10.215593 0
M  V30 28 O 11.187736 0.431822 -18.194460 0
M  V30 29 C 12.140084 8.447604 -8.432102 0
M  V30 30 N 9.375383 6.486353 -9.514513 0 CHG=1
M  V30 31 C 12.478159 4.429236 -17.080900 0 CFG=2
M  V30 32 O 10.575391 8.030067 -5.185037 0
M  V30 33 O 11.244941 6.685939 -6.953303 0
M  V30 34 C 10.571986 6.753709 -5.741214 0
M  V30 35 C 10.640646 1.315834 -20.352118 0
M  V30 36 C 12.488422 3.063912 -17.813687 0
M  V30 37 C 5.823739 6.714477 -14.684039 0 CFG=2
M  V30 38 C 11.812563 8.501717 -4.687010 0
M  V30 39 N 11.479420 2.725592 -18.553742 0
M  V30 40 C 12.173617 8.428160 -10.032407 0
M  V30 41 C 7.779826 6.140469 -12.955901 0 CFG=1
M  V30 42 H 9.556310 3.827634 -11.385443 0
M  V30 43 H 7.836368 3.552724 -11.585165 0
M  V30 44 H 7.377437 5.563609 -10.947847 0
M  V30 45 H 10.774938 5.367635 -17.949154 0
M  V30 46 H 10.812932 7.251382 -12.339752 0
M  V30 47 H 10.085353 8.394979 -7.509985 0
M  V30 48 H 8.740693 6.389265 -15.500258 0
M  V30 49 H 9.838237 4.347556 -13.698486 0
M  V30 50 H 14.461678 5.055665 -17.813202 0
M  V30 51 H 13.121330 5.612267 -18.809739 0
M  V30 52 H 13.462384 6.380111 -17.264810 0
M  V30 53 H 8.172271 7.990315 -14.190421 0
M  V30 54 H 8.099479 3.530727 -16.281428 0
M  V30 55 H 10.299945 4.017809 -15.418428 0
M  V30 56 H 8.909539 4.225944 -18.646765 0
M  V30 57 H 8.407816 5.845116 -18.208405 0
M  V30 58 H 7.376071 8.129053 -11.404107 0
M  V30 59 H 6.880649 3.456626 -18.317098 0
M  V30 60 H 4.869618 7.814710 -15.971567 0
M  V30 61 H 5.785963 7.087593 -12.498351 0
M  V30 62 H 6.728500 6.693923 -16.678575 0
M  V30 63 H 6.074191 5.189979 -16.123317 0
M  V30 64 H 12.168389 9.469607 -8.057171 0
M  V30 65 H 13.039826 7.960295 -8.056280 0
M  V30 66 H 12.860977 4.250188 -16.073069 0
M  V30 67 H 9.531312 6.469585 -5.909719 0
M  V30 68 H 11.001881 6.031877 -5.045092 0
M  V30 69 H 9.551057 1.326785 -20.379939 0
M  V30 70 H 11.008987 2.142728 -20.960047 0
M  V30 71 H 10.992916 0.385690 -20.801101 0
M  V30 72 H 4.969383 6.068348 -14.513830 0
M  V30 73 H 11.641744 9.394752 -4.084739 0
M  V30 74 H 12.304745 7.762030 -4.053811 0
M  V30 75 H 12.475128 8.790432 -5.500410 0
M  V30 76 H 13.066856 7.990786 -10.472175 0
M  V30 77 H 11.982260 9.433327 -10.391999 0
M  V30 78 H 8.696813 6.096242 -8.871240 0
M  V30 79 H 10.200035 3.287884 -16.875942 0
M  V30 80 H 7.112433 4.561208 -13.994021 0
M  V30 END ATOM
M  V30 BEGIN BOND
M  V30 1 1 2 1
M  V30 2 1 6 3
M  V30 3 1 9 1
M  V30 4 1 9 8
M  V30 5 1 12 2
M  V30 6 2 12 5
M  V30 7 1 15 4
M  V30 8 1 16 7
M  V30 9 1 17 4
M  V30 10 1 17 16
M  V30 11 1 18 7
M  V30 12 1 18 9
M  V30 13 1 20 16
M  V30 14 1 21 13
M  V30 15 1 22 20
M  V30 16 1 24 13
M  V30 17 2 25 11
M  V30 18 1 25 14
M  V30 19 1 26 7
M  V30 20 1 27 3
M  V30 21 1 27 5
M  V30 22 2 28 19
M  V30 23 1 29 6
M  V30 24 2 30 3
M  V30 25 1 30 12
M  V30 26 1 31 4
M  V30 27 1 31 10
M  V30 28 1 33 6
M  V30 29 1 34 32
M  V30 30 1 34 33
M  V30 31 1 35 19
M  V30 32 1 36 25
M  V30 33 1 36 31
M  V30 34 1 37 23
M  V30 35 1 37 24
M  V30 36 1 37 26
M  V30 37 1 38 32
M  V30 38 1 39 19
M  V30 39 2 39 36
M  V30 40 1 40 27
M  V30 41 1 40 29
M  V30 42 1 41 2 CFG=1
M  V30 43 1 41 13
M  V30 44 1 41 18
M  V30 45 1 41 24
M  V30 46 1 42 1
M  V30 47 1 43 1
M  V30 48 1 2 44 CFG=1
M  V30 49 1 4 45 CFG=3
M  V30 50 1 46 5
M  V30 51 1 6 47 CFG=1
M  V30 52 1 7 48 CFG=1
M  V30 53 1 9 49 CFG=1
M  V30 54 1 50 10
M  V30 55 1 51 10
M  V30 56 1 52 10
M  V30 57 1 13 53 CFG=3
M  V30 58 1 16 54 CFG=1
M  V30 59 1 55 17
M  V30 60 1 56 20
M  V30 61 1 57 20
M  V30 62 1 58 21
M  V30 63 1 59 22
M  V30 64 1 60 23
M  V30 65 1 24 61 CFG=1
M  V30 66 1 62 26
M  V30 67 1 63 26
M  V30 68 1 64 29
M  V30 69 1 65 29
M  V30 70 1 31 66 CFG=1
M  V30 71 1 67 34
M  V30 72 1 68 34
M  V30 73 1 69 35
M  V30 74 1 70 35
M  V30 75 1 71 35
M  V30 76 1 37 72 CFG=1
M  V30 77 1 73 38
M  V30 78 1 74 38
M  V30 79 1 75 38
M  V30 80 1 76 40
M  V30 81 1 77 40
M  V30 82 1 78 30
M  V30 83 1 79 17
M  V30 84 1 18 80 CFG=3
M  V30 END BOND
M  V30 END CTAB
M  END
>  <i_epik_Tot_Q>  (1) 
0

>  <i_epik_Tot_abs_Q>  (1) 
6

>  <i_i_glide_confnum>  (1) 
2876

>  <i_i_glide_lignum>  (1) 
168

>  <i_i_glide_posenum>  (1) 
99

>  <i_i_glide_rotatable_bonds>  (1) 
15

>  <i_lp_mmshare_version>  (1) 
72125

>  <i_m_source_file_index>  (1) 
91

>  <i_f3d_flags>  (1) 
0

>  <num_sample>  (1) 
100

>  <b_lp_Chiralities_Consistent>  (1) 
1

>  <r_epik_Charging_Adjusted_Penalty>  (1) 
0.35079833336250127

>  <r_epik_Ionization_Penalty>  (1) 
1.4702178244609605

>  <r_epik_Ionization_Penalty_Charging>  (1) 
0.099885809697688246

>  <r_epik_Ionization_Penalty_Neutral>  (1) 
1.3703320147632723

>  <r_epik_State_Penalty>  (1) 
0.25091252366481304

>  <r_glide_ring_energy>  (1) 
0

>  <r_i_docking_score>  (1) 
-5.1352475008006966

>  <r_i_glide_ecoul>  (1) 
-6.6037617246026983

>  <r_i_glide_eff_state_penalty>  (1) 
0.25091252366481304

>  <r_i_glide_einternal>  (1) 
16.321979092576406

>  <r_i_glide_emodel>  (1) 
-41.882880205952233

>  <r_i_glide_emodel_strain>  (1) 
0.63986255736702446

>  <r_i_glide_energy>  (1) 
-37.826392009992745

>  <r_i_glide_erotb>  (1) 
0.57888693115673628

>  <r_i_glide_esite>  (1) 
-0.14209694895540614

>  <r_i_glide_evdw>  (1) 
-31.222630285390043

>  <r_i_glide_gscore>  (1) 
-5.3861600244655099

>  <r_i_glide_gscore_strain>  (1) 
0

>  <r_i_glide_hbond>  (1) 
-0.16

>  <r_i_glide_ligand_efficiency>  (1) 
-0.12524993904391943

>  <r_i_glide_ligand_efficiency_ln>  (1) 
-1.0894598466150578

>  <r_i_glide_ligand_efficiency_sa>  (1) 
-0.43188899916812912

>  <r_i_glide_lipo>  (1) 
-1.7280400140857515

>  <r_i_glide_metal>  (1) 
-0

>  <r_i_glide_rewards>  (1) 
-1.3832142196211819

>  <r_lp_Energy>  (1) 
72.675405999999995

>  <r_lp_tautomer_probability>  (1) 
1

>  <s_epik_Chemistry_Notes>  (1) 
This compound has an imine and may undergo hydrolysis. This compound contains an acetal/aminal-like group ( X-CH(R)-Y where X, Y are N, S, or O) that may be acid/base labile, releasing an aldehyde.

>  <s_epik_cmdline>  (1) 
J2VwaWtfcHl0aG9uJywgJy1waHQnLCAnMS4wJywgJy1waCcsICc3LjQnLCAnLXRuJywgJzgnLCAnLW1hJywgJzUwMCcsICctaW1hZScsICc8aW5maWxlLm1hZT4nLCAnLW9tYWUnLCAnPG91dGZpbGUubWFlPic=

>  <s_epik_input>  (1) 
W0NIM11PW0NIMl1PW0NASF0xW0NIMl1bQ0gyXW4oYzEyKVtjSF1jKG4yKVtDQEBIXTNbQ0gyXVtDQEBIXShbT0hdKU4oW0NAQF0zNDUpW0NASF0oW0NIMl1bQ0BIXShbT0hdKVtDQEBIXTVbQ0BIXTRbT0hdKVtDQEBIXShbQ0gyXVtPSF0pW05IXVtDQEBIXShbT0hdKVtDQEhdKFtDSDNdKUMoXEMoPU8pW09IXSk9TlxDKD1PKVtDSDNd

>  <s_glide_docking_method>  (1) 
confgen

>  <s_i_glide_gridfile>  (1) 
gpcr_drd2_6luq_protein_autoprepared_prepared

>  <s_lp_Force_Field>  (1) 
S-OPLS

>  <s_lp_Variant>  (1) 
DiffSBDD_90-3

>  <s_m_source_file>  (1) 
generated_generic_title2_ligand_DiffSBDD_2026-06-23_prepared.sdf

>  <GenAI_Model>  (1) 
DiffSBDD

>  <Protein>  (1) 
generic_title2

$$$$
DiffSBDD_87
     RDKit          3D

  0  0  0  0  0  0  0  0  0  0999 V3000
M  V30 BEGIN CTAB
M  V30 COUNTS 76 79 0 0 1
M  V30 BEGIN ATOM
M  V30 1 S 4.976856 8.514198 -20.540521 0
M  V30 2 C 11.866246 7.454934 -3.887608 0
M  V30 3 C 10.338247 7.423991 -10.398711 0
M  V30 4 C 9.891207 6.420199 -8.166259 0
M  V30 5 O 7.375410 11.067996 -21.957544 0
M  V30 6 C 5.556631 6.466196 -15.966064 0
M  V30 7 C 8.658558 5.236891 -14.035490 0
M  V30 8 C 7.677181 10.399946 -23.185207 0
M  V30 9 C 5.761403 6.189498 -21.909321 0
M  V30 10 C 6.820772 5.860788 -15.704480 0
M  V30 11 C 9.167128 8.623970 -7.182238 0
M  V30 12 C 7.025675 9.678205 -22.036990 0 CFG=2
M  V30 13 O 5.230967 6.015791 -19.607132 0
M  V30 14 C 9.143559 5.136071 -12.712931 0
M  V30 15 C 5.543238 9.374259 -22.039025 0
M  V30 16 C 5.831326 6.899466 -20.539292 0 CFG=2
M  V30 17 N 9.375406 6.660355 -9.553572 0 CFG=2 CHG=1
M  V30 18 C 7.018443 5.398870 -18.116466 0
M  V30 19 C 7.546934 5.333628 -16.810784 0
M  V30 20 C 11.375404 8.091764 -5.183769 0
M  V30 21 C 5.762665 5.986593 -18.344419 0
M  V30 22 C 5.038956 6.522629 -17.273002 0
M  V30 23 C 6.579520 6.192883 -13.190240 0
M  V30 24 C 11.457155 8.355301 -8.299083 0
M  V30 25 N 10.911829 7.248122 -6.129717 0
M  V30 26 C 10.369588 7.689755 -7.429408 0 CFG=2
M  V30 27 C 10.899724 8.669350 -9.689197 0
M  V30 28 O 11.415214 9.313055 -5.324068 0
M  V30 29 C 7.728025 4.790320 -9.334829 0
M  V30 30 C 5.809760 3.638920 -21.419838 0
M  V30 31 C 8.856419 5.402193 -10.188521 0 CFG=1
M  V30 32 C 7.360618 5.767748 -14.299282 0
M  V30 33 C 8.346907 5.552988 -11.632378 0
M  V30 34 C 6.538199 4.859663 -22.002811 0
M  V30 35 C 7.067383 6.080395 -11.878574 0
M  V30 36 H 11.296754 6.556832 -3.644364 0
M  V30 37 H 12.917778 7.190107 -3.967906 0
M  V30 38 H 11.775495 8.156548 -3.057997 0
M  V30 39 H 11.169453 6.790233 -10.691413 0
M  V30 40 H 9.850076 7.738131 -11.321945 0
M  V30 41 H 9.116446 5.985386 -7.537663 0
M  V30 42 H 10.700007 5.689655 -8.216399 0
M  V30 43 H 4.976006 6.881729 -15.164656 0
M  V30 44 H 9.284259 4.903929 -14.843798 0
M  V30 45 H 8.734714 10.234348 -23.374857 0
M  V30 46 H 7.071806 10.735057 -24.021204 0
M  V30 47 H 4.722003 6.039849 -22.204400 0
M  V30 48 H 6.199926 6.840058 -22.662861 0
M  V30 49 H 8.575842 8.809634 -8.074144 0
M  V30 50 H 8.490670 8.233373 -6.420584 0
M  V30 51 H 9.532626 9.588190 -6.854318 0
M  V30 52 H 7.665218 9.012965 -21.460483 0
M  V30 53 H 10.126471 4.724730 -12.532356 0
M  V30 54 H 5.285889 8.797555 -22.925694 0
M  V30 55 H 4.993546 10.311858 -22.120123 0
M  V30 56 H 6.879204 7.077855 -20.292744 0
M  V30 57 H 7.576078 4.983621 -18.942513 0
M  V30 58 H 8.503668 4.867463 -16.660654 0
M  V30 59 H 4.073917 6.974833 -17.449773 0
M  V30 60 H 5.594175 6.593346 -13.339780 0
M  V30 61 H 12.324055 7.699683 -8.389200 0
M  V30 62 H 11.817106 9.278713 -7.846281 0
M  V30 63 H 10.914123 6.256544 -5.937062 0
M  V30 64 H 11.681120 9.122872 -10.300145 0
M  V30 65 H 10.114827 9.416174 -9.585019 0
M  V30 66 H 7.217541 3.990229 -9.866416 0
M  V30 67 H 8.072288 4.378968 -8.389286 0
M  V30 68 H 6.975578 5.542639 -9.105874 0
M  V30 69 H 6.360954 2.723630 -21.637147 0
M  V30 70 H 5.706120 3.699217 -20.337581 0
M  V30 71 H 4.813273 3.533884 -21.848492 0
M  V30 72 H 9.675228 4.681230 -10.215571 0
M  V30 73 H 6.724192 4.653020 -23.057666 0
M  V30 74 H 7.521515 4.965303 -21.542986 0
M  V30 75 H 6.446067 6.390831 -11.055385 0
M  V30 76 H 8.530782 7.234970 -9.460694 0
M  V30 END ATOM
M  V30 BEGIN BOND
M  V30 1 1 8 5
M  V30 2 2 10 6
M  V30 3 1 12 5
M  V30 4 1 12 8
M  V30 5 2 14 7
M  V30 6 1 15 1
M  V30 7 1 15 12
M  V30 8 1 16 1
M  V30 9 1 16 9
M  V30 10 1 16 13
M  V30 11 1 17 3
M  V30 12 1 17 4
M  V30 13 1 19 10
M  V30 14 2 19 18
M  V30 15 1 20 2
M  V30 16 1 21 13
M  V30 17 1 21 18
M  V30 18 1 22 6
M  V30 19 2 22 21
M  V30 20 1 25 20
M  V30 21 1 26 4
M  V30 22 1 26 11
M  V30 23 1 26 24
M  V30 24 1 26 25 CFG=1
M  V30 25 1 27 3
M  V30 26 1 27 24
M  V30 27 2 28 20
M  V30 28 1 31 17
M  V30 29 1 31 29
M  V30 30 1 32 7
M  V30 31 1 32 10
M  V30 32 2 32 23
M  V30 33 1 33 14
M  V30 34 1 33 31
M  V30 35 1 34 9
M  V30 36 1 34 30
M  V30 37 1 35 23
M  V30 38 2 35 33
M  V30 39 1 36 2
M  V30 40 1 37 2
M  V30 41 1 38 2
M  V30 42 1 39 3
M  V30 43 1 40 3
M  V30 44 1 41 4
M  V30 45 1 42 4
M  V30 46 1 43 6
M  V30 47 1 44 7
M  V30 48 1 45 8
M  V30 49 1 46 8
M  V30 50 1 47 9
M  V30 51 1 48 9
M  V30 52 1 49 11
M  V30 53 1 50 11
M  V30 54 1 51 11
M  V30 55 1 12 52 CFG=1
M  V30 56 1 53 14
M  V30 57 1 54 15
M  V30 58 1 55 15
M  V30 59 1 16 56 CFG=1
M  V30 60 1 57 18
M  V30 61 1 58 19
M  V30 62 1 59 22
M  V30 63 1 60 23
M  V30 64 1 61 24
M  V30 65 1 62 24
M  V30 66 1 63 25
M  V30 67 1 64 27
M  V30 68 1 65 27
M  V30 69 1 66 29
M  V30 70 1 67 29
M  V30 71 1 68 29
M  V30 72 1 69 30
M  V30 73 1 70 30
M  V30 74 1 71 30
M  V30 75 1 31 72 CFG=3
M  V30 76 1 73 34
M  V30 77 1 74 34
M  V30 78 1 75 35
M  V30 79 1 17 76 CFG=1
M  V30 END BOND
M  V30 END CTAB
M  END
>  <i_epik_Tot_Q>  (1) 
1

>  <i_epik_Tot_abs_Q>  (1) 
1

>  <i_i_glide_confnum>  (1) 
307

>  <i_i_glide_lignum>  (1) 
157

>  <i_i_glide_posenum>  (1) 
251

>  <i_i_glide_rotatable_bonds>  (1) 
12

>  <i_lp_mmshare_version>  (1) 
72125

>  <i_m_source_file_index>  (1) 
88

>  <i_f3d_flags>  (1) 
0

>  <num_sample>  (1) 
100

>  <b_lp_Chiralities_Consistent>  (1) 
1

>  <r_epik_Charging_Adjusted_Penalty>  (1) 
0.24591797925462006

>  <r_epik_Ionization_Penalty>  (1) 
0.12295908446121387

>  <r_epik_Ionization_Penalty_Charging>  (1) 
0.12295898962731001

>  <r_epik_Ionization_Penalty_Neutral>  (1) 
9.4833903855356945e-08

>  <r_epik_State_Penalty>  (1) 
0.12295898962731003

>  <r_glide_ring_energy>  (1) 
0

>  <r_i_docking_score>  (1) 
-5.134830813740896

>  <r_i_glide_ecoul>  (1) 
-8.9037194925310601

>  <r_i_glide_eff_state_penalty>  (1) 
0.12295898962731003

>  <r_i_glide_einternal>  (1) 
17.776757147927093

>  <r_i_glide_emodel>  (1) 
-56.545565393541885

>  <r_i_glide_emodel_strain>  (1) 
0.70393892610092479

>  <r_i_glide_energy>  (1) 
-53.120582079816742

>  <r_i_glide_erotb>  (1) 
0.74116783978336576

>  <r_i_glide_esite>  (1) 
-0.10000000000000001

>  <r_i_glide_evdw>  (1) 
-44.216862587285682

>  <r_i_glide_gscore>  (1) 
-5.2577898033682064

>  <r_i_glide_gscore_strain>  (1) 
0

>  <r_i_glide_hbond>  (1) 
-0.38676564021137838

>  <r_i_glide_ligand_efficiency>  (1) 
-0.14670945182116846

>  <r_i_glide_ligand_efficiency_ln>  (1) 
-1.1272093250459583

>  <r_i_glide_ligand_efficiency_sa>  (1) 
-0.47989634523846025

>  <r_i_glide_lipo>  (1) 
-2.4770684716162075

>  <r_i_glide_metal>  (1) 
-0

>  <r_i_glide_rewards>  (1) 
0.51127752191995746

>  <r_lp_Energy>  (1) 
41.786876999999997

>  <r_lp_tautomer_probability>  (1) 
1

>  <s_epik_Chemistry_Notes>  (1) 
This compound contains an acetal/aminal-like group ( X-CH(R)-Y where X, Y are N, S, or O) that may be acid/base labile, releasing an aldehyde.

>  <s_epik_cmdline>  (1) 
J2VwaWtfcHl0aG9uJywgJy1waHQnLCAnMS4wJywgJy1waCcsICc3LjQnLCAnLXRuJywgJzgnLCAnLW1hJywgJzUwMCcsICctaW1hZScsICc8aW5maWxlLm1hZT4nLCAnLW9tYWUnLCAnPG91dGZpbGUubWFlPic=

>  <s_epik_input>  (1) 
W0NIMl0xT1tDQEhdMVtDSDJdU1tDQEhdKFtDSDJdW0NIMl1bQ0gzXSlPYyhbY0hdW2NIXTIpW2NIXVtjSF1jMi1jM1tjSF1bY0hdYyhbY0hdW2NIXTMpW0NASF0oW0NIM10pTihbQ0gyXVtDSDJdW0NIMl00KVtDSDJdW0NAQF00KFtDSDNdKVtOSF1DKD1PKVtDSDNd

>  <s_glide_docking_method>  (1) 
confgen

>  <s_i_glide_gridfile>  (1) 
gpcr_drd2_6luq_protein_autoprepared_prepared

>  <s_lp_Force_Field>  (1) 
S-OPLS

>  <s_lp_Variant>  (1) 
DiffSBDD_87-1

>  <s_m_source_file>  (1) 
generated_generic_title2_ligand_DiffSBDD_2026-06-23_prepared.sdf

>  <GenAI_Model>  (1) 
DiffSBDD

>  <Protein>  (1) 
generic_title2

$$$$
DiffSBDD_78
     RDKit          3D

  0  0  0  0  0  0  0  0  0  0999 V3000
M  V30 BEGIN CTAB
M  V30 COUNTS 81 85 0 0 1
M  V30 BEGIN ATOM
M  V30 1 C 10.189255 8.274151 -7.486840 0 CFG=2
M  V30 2 C 11.645472 8.355404 -7.996752 0
M  V30 3 C 7.073523 3.190161 -12.663320 0 CFG=1
M  V30 4 C 7.036005 4.723792 -14.956826 0 CFG=2
M  V30 5 C 10.156054 8.030904 -5.982138 0
M  V30 6 N 7.741109 4.999761 -17.335734 0 CHG=1
M  V30 7 C 8.213824 3.749921 -14.731825 0 CFG=1
M  V30 8 C 8.787786 5.102999 -12.597075 0 CFG=1
M  V30 9 N 9.375403 7.171191 -8.052127 0 CFG=2 CHG=1
M  V30 10 C 9.416527 6.038894 -7.102462 0
M  V30 11 N 9.257462 6.528963 -12.599605 0 CFG=2 CHG=1
M  V30 12 C 6.563939 5.094202 -11.170670 0
M  V30 13 C 7.284486 5.715748 -16.108264 0
M  V30 14 C 7.631763 6.387154 -19.330277 0
M  V30 15 O 6.704919 5.359448 -13.689909 0
M  V30 16 C 10.749173 6.612031 -12.615341 0
M  V30 17 C 6.882358 6.754516 -20.626674 0 CFG=1
M  V30 18 C 8.176348 2.130910 -12.638716 0
M  V30 19 C 7.264271 4.728193 -12.504539 0 CFG=2
M  V30 20 F 6.986667 5.722777 -21.466058 0
M  V30 21 C 10.197325 6.514462 -5.872426 0
M  V30 22 C 5.088348 5.427620 -11.346436 0
M  V30 23 O 5.612959 5.498285 -18.373691 0
M  V30 24 C 9.289839 4.529785 -13.945411 0
M  V30 25 C 5.389638 6.967778 -20.310416 0 CFG=1
M  V30 26 C 9.375419 7.957701 -10.459695 0
M  V30 27 C 6.924395 5.176254 -18.696577 0 CFG=2
M  V30 28 C 9.590308 6.792687 -9.465374 0
M  V30 29 C 8.631675 7.600418 -11.770997 0
M  V30 30 C 7.499788 7.959635 -21.355406 0
M  V30 31 C 4.816650 5.775479 -19.521759 0
M  V30 32 C 7.633850 2.629244 -13.934485 0 CFG=1
M  V30 33 F 5.217454 8.075560 -19.587618 0
M  V30 34 H 9.665844 9.190229 -7.722741 0
M  V30 35 H 12.194748 9.126159 -7.454516 0
M  V30 36 H 12.177466 7.414935 -7.855418 0
M  V30 37 H 11.712694 8.625333 -9.048016 0
M  V30 38 H 6.073862 2.838265 -12.418286 0
M  V30 39 H 6.175388 4.127944 -15.235166 0
M  V30 40 H 9.209854 8.390177 -5.585406 0
M  V30 41 H 10.957665 8.527944 -5.434456 0
M  V30 42 H 8.711359 5.227049 -17.500948 0
M  V30 43 H 8.616243 3.326864 -15.650080 0
M  V30 44 H 9.292354 4.611262 -11.762830 0
M  V30 45 H 8.393248 5.767497 -6.839297 0
M  V30 46 H 9.895234 5.171837 -7.552377 0
M  V30 47 H 7.021182 5.899861 -10.622780 0
M  V30 48 H 6.654576 4.258989 -10.473781 0
M  V30 49 H 6.403495 6.333402 -16.282362 0
M  V30 50 H 8.070558 6.390216 -15.792439 0
M  V30 51 H 7.622160 7.206561 -18.618592 0
M  V30 52 H 8.671537 6.135524 -19.542158 0
M  V30 53 H 11.201313 6.390282 -11.657974 0
M  V30 54 H 11.238008 5.990394 -13.353668 0
M  V30 55 H 11.073247 7.590231 -12.894040 0
M  V30 56 H 7.896397 1.111285 -12.385042 0
M  V30 57 H 9.190599 2.399173 -12.355657 0
M  V30 58 H 9.777596 6.151549 -4.933865 0
M  V30 59 H 11.229914 6.167172 -5.927710 0
M  V30 60 H 4.600321 5.590222 -10.384671 0
M  V30 61 H 4.576529 4.618863 -11.867193 0
M  V30 62 H 4.975724 6.341160 -11.931098 0
M  V30 63 H 10.175147 3.990314 -13.667560 0
M  V30 64 H 9.648577 5.296344 -14.631449 0
M  V30 65 H 4.820673 7.118384 -21.228523 0
M  V30 66 H 10.341556 8.390283 -10.712468 0
M  V30 67 H 8.855640 8.790193 -9.985183 0
M  V30 68 H 6.991847 4.272406 -19.305151 0
M  V30 69 H 8.916791 5.968817 -9.684046 0
M  V30 70 H 10.593595 6.390214 -9.566278 0
M  V30 71 H 8.706630 8.499006 -12.384971 0
M  V30 72 H 7.556677 7.511795 -11.663741 0
M  V30 73 H 7.416485 8.877222 -20.774832 0
M  V30 74 H 8.555906 7.795076 -21.568742 0
M  V30 75 H 6.999129 8.137838 -22.307479 0
M  V30 76 H 4.756691 4.887302 -20.152850 0
M  V30 77 H 3.804424 5.990209 -19.185065 0
M  V30 78 H 6.990452 1.948354 -14.489206 0
M  V30 79 H 8.409183 7.491592 -8.031569 0
M  V30 80 H 8.977719 6.821839 -13.524530 0
M  V30 81 H 7.709312 4.017942 -17.100993 0
M  V30 END ATOM
M  V30 BEGIN BOND
M  V30 1 1 2 1
M  V30 2 1 5 1
M  V30 3 1 7 4
M  V30 4 1 9 1
M  V30 5 1 10 9
M  V30 6 1 11 8
M  V30 7 1 13 4
M  V30 8 1 13 6
M  V30 9 1 15 4
M  V30 10 1 16 11
M  V30 11 1 17 14
M  V30 12 1 18 3
M  V30 13 1 19 3
M  V30 14 1 19 8
M  V30 15 1 19 12 CFG=1
M  V30 16 1 19 15
M  V30 17 1 17 20 CFG=3
M  V30 18 1 21 5
M  V30 19 1 21 10
M  V30 20 1 22 12
M  V30 21 1 24 7
M  V30 22 1 24 8
M  V30 23 1 25 17
M  V30 24 1 27 6
M  V30 25 1 27 14
M  V30 26 1 27 23
M  V30 27 1 28 9
M  V30 28 1 28 26
M  V30 29 1 29 11
M  V30 30 1 29 26
M  V30 31 1 30 17
M  V30 32 1 31 23
M  V30 33 1 31 25
M  V30 34 1 32 3
M  V30 35 1 32 7
M  V30 36 1 32 18
M  V30 37 1 33 25
M  V30 38 1 1 34 CFG=1
M  V30 39 1 35 2
M  V30 40 1 36 2
M  V30 41 1 37 2
M  V30 42 1 3 38 CFG=1
M  V30 43 1 4 39 CFG=3
M  V30 44 1 40 5
M  V30 45 1 41 5
M  V30 46 1 42 6
M  V30 47 1 7 43 CFG=3
M  V30 48 1 8 44 CFG=1
M  V30 49 1 45 10
M  V30 50 1 46 10
M  V30 51 1 47 12
M  V30 52 1 48 12
M  V30 53 1 49 13
M  V30 54 1 50 13
M  V30 55 1 51 14
M  V30 56 1 52 14
M  V30 57 1 53 16
M  V30 58 1 54 16
M  V30 59 1 55 16
M  V30 60 1 56 18
M  V30 61 1 57 18
M  V30 62 1 58 21
M  V30 63 1 59 21
M  V30 64 1 60 22
M  V30 65 1 61 22
M  V30 66 1 62 22
M  V30 67 1 63 24
M  V30 68 1 64 24
M  V30 69 1 25 65 CFG=3
M  V30 70 1 66 26
M  V30 71 1 67 26
M  V30 72 1 27 68 CFG=3
M  V30 73 1 69 28
M  V30 74 1 70 28
M  V30 75 1 71 29
M  V30 76 1 72 29
M  V30 77 1 73 30
M  V30 78 1 74 30
M  V30 79 1 75 30
M  V30 80 1 76 31
M  V30 81 1 77 31
M  V30 82 1 32 78 CFG=3
M  V30 83 1 9 79 CFG=3
M  V30 84 1 11 80 CFG=3
M  V30 85 1 81 6
M  V30 END BOND
M  V30 END CTAB
M  END
>  <i_epik_Tot_Q>  (1) 
3

>  <i_epik_Tot_abs_Q>  (1) 
3

>  <i_i_glide_confnum>  (1) 
933

>  <i_i_glide_lignum>  (1) 
133

>  <i_i_glide_posenum>  (1) 
141

>  <i_i_glide_rotatable_bonds>  (1) 
9

>  <i_lp_mmshare_version>  (1) 
72125

>  <i_m_source_file_index>  (1) 
79

>  <i_f3d_flags>  (1) 
0

>  <num_sample>  (1) 
100

>  <b_lp_Chiralities_Consistent>  (1) 
1

>  <r_epik_Charging_Adjusted_Penalty>  (1) 
1.7942086838225126

>  <r_epik_Ionization_Penalty>  (1) 
0.94562311220168549

>  <r_epik_Ionization_Penalty_Charging>  (1) 
0.94562311220168382

>  <r_epik_Ionization_Penalty_Neutral>  (1) 
1.710257484888175e-15

>  <r_epik_State_Penalty>  (1) 
0.84858557162082893

>  <r_glide_ring_energy>  (1) 
0

>  <r_i_docking_score>  (1) 
-5.1336007401833941

>  <r_i_glide_ecoul>  (1) 
-6.2475578364596078

>  <r_i_glide_eff_state_penalty>  (1) 
0.84858557162082893

>  <r_i_glide_einternal>  (1) 
23.11785395484668

>  <r_i_glide_emodel>  (1) 
-29.370937745867053

>  <r_i_glide_emodel_strain>  (1) 
2.9094140734400469

>  <r_i_glide_energy>  (1) 
-29.265048477049774

>  <r_i_glide_erotb>  (1) 
0.50682868049007723

>  <r_i_glide_esite>  (1) 
-0.10000000000000001

>  <r_i_glide_evdw>  (1) 
-23.017490640590164

>  <r_i_glide_gscore>  (1) 
-5.9821863118042229

>  <r_i_glide_gscore_strain>  (1) 
0

>  <r_i_glide_hbond>  (1) 
-0.23251281771519372

>  <r_i_glide_ligand_efficiency>  (1) 
-0.15556365879343617

>  <r_i_glide_ligand_efficiency_ln>  (1) 
-1.1416862242547046

>  <r_i_glide_ligand_efficiency_sa>  (1) 
-0.49897577607970373

>  <r_i_glide_lipo>  (1) 
-2.1098659211811657

>  <r_i_glide_metal>  (1) 
-0

>  <r_i_glide_rewards>  (1) 
-1.9586280458994909

>  <r_lp_Energy>  (1) 
78.433422999999991

>  <s_epik_Chemistry_Notes>  (1) 
This compound contains an acetal/aminal-like group ( X-CH(R)-Y where X, Y are N, S, or O) that may be acid/base labile, releasing an aldehyde.

>  <s_epik_cmdline>  (1) 
J2VwaWtfcHl0aG9uJywgJy1waHQnLCAnMS4wJywgJy1waCcsICc3LjQnLCAnLXRuJywgJzgnLCAnLW1hJywgJzUwMCcsICctaW1hZScsICc8aW5maWxlLm1hZT4nLCAnLW9tYWUnLCAnPG91dGZpbGUubWFlPic=

>  <s_epik_input>  (1) 
W0NIM11bQ0BASF0xW0NIMl1bQ0gyXVtDSDJdTjFbQ0gyXVtDSDJdW0NIMl1OKFtDSDNdKVtDQEBIXTJbQ0gyXVtDQEBIXShbQ0BASF0oW0NIMl0zKVtDQEBIXTNbQ0BAXTI0W0NIMl1bQ0gzXSlbQ0BASF0oTzQpW0NIMl1bTkhdW0NASF0oW0NIMl1bQ0BdNShGKVtDSDNdKU9bQ0gyXVtDQEhdNUY=

>  <s_glide_docking_method>  (1) 
confgen

>  <s_i_glide_gridfile>  (1) 
gpcr_drd2_6luq_protein_autoprepared_prepared

>  <s_lp_Force_Field>  (1) 
S-OPLS

>  <s_lp_Variant>  (1) 
DiffSBDD_78-5

>  <s_m_source_file>  (1) 
generated_generic_title2_ligand_DiffSBDD_2026-06-23_prepared.sdf

>  <GenAI_Model>  (1) 
DiffSBDD

>  <Protein>  (1) 
generic_title2

$$$$
DiffSBDD_78
     RDKit          3D

  0  0  0  0  0  0  0  0  0  0999 V3000
M  V30 BEGIN CTAB
M  V30 COUNTS 81 85 0 0 1
M  V30 BEGIN ATOM
M  V30 1 C 9.692263 8.365166 -7.808646 0 CFG=2
M  V30 2 C 11.186426 8.757712 -7.784668 0
M  V30 3 C 5.752970 4.325778 -13.550655 0 CFG=1
M  V30 4 C 7.191908 2.756413 -15.287888 0 CFG=2
M  V30 5 C 9.212019 7.919546 -6.432316 0
M  V30 6 N 7.769530 0.587419 -16.457557 0 CHG=1
M  V30 7 C 7.171803 2.322563 -13.792934 0 CFG=1
M  V30 8 C 8.215901 4.551622 -13.178237 0 CFG=1
M  V30 9 N 9.375411 7.230294 -8.699598 0 CFG=2 CHG=1
M  V30 10 C 9.552928 5.996851 -7.907419 0
M  V30 11 N 9.549373 5.204791 -13.332280 0 CFG=1 CHG=1
M  V30 12 C 6.840358 6.434400 -14.394939 0
M  V30 13 C 8.129225 2.014387 -16.269851 0
M  V30 14 C 6.391477 -1.190831 -17.317909 0
M  V30 15 O 7.349390 4.191879 -15.361166 0
M  V30 16 C 10.025456 5.347746 -14.736160 0
M  V30 17 C 5.231186 -1.601713 -18.233582 0 CFG=1
M  V30 18 C 5.577979 3.832449 -12.137363 0
M  V30 19 C 7.046516 4.916869 -14.148138 0 CFG=2
M  V30 20 F 4.131097 -1.064049 -17.720285 0
M  V30 21 C 9.280213 6.391735 -6.450912 0
M  V30 22 C 5.964986 6.752167 -15.616130 0
M  V30 23 O 6.732036 0.803015 -18.605550 0
M  V30 24 C 8.322981 3.015954 -13.024485 0
M  V30 25 C 5.441639 -0.999266 -19.636062 0 CFG=1
M  V30 26 C 9.455146 6.192009 -10.961797 0
M  V30 27 C 6.454316 0.347949 -17.317024 0 CFG=2
M  V30 28 C 10.029829 7.262214 -10.032627 0
M  V30 29 C 9.782027 6.405834 -12.462528 0
M  V30 30 C 5.001110 -3.120122 -18.253608 0
M  V30 31 C 5.688749 0.519837 -19.540923 0
M  V30 32 C 5.828102 2.839207 -13.270708 0 CFG=1
M  V30 33 F 6.486357 -1.572599 -20.235403 0
M  V30 34 H 9.089354 9.199070 -8.149500 0
M  V30 35 H 11.369675 9.546928 -7.054415 0
M  V30 36 H 11.820410 7.912422 -7.514736 0
M  V30 37 H 11.524083 9.141548 -8.746821 0
M  V30 38 H 4.829791 4.692383 -13.985252 0
M  V30 39 H 6.198118 2.564009 -15.675448 0
M  V30 40 H 8.175847 8.236191 -6.312999 0
M  V30 41 H 9.779602 8.357588 -5.610672 0
M  V30 42 H 8.538060 0.138234 -16.934964 0
M  V30 43 H 7.205590 1.238487 -13.672865 0
M  V30 44 H 7.859503 4.900458 -12.230344 0
M  V30 45 H 8.882854 5.207067 -8.249022 0
M  V30 46 H 10.578407 5.635750 -8.004179 0
M  V30 47 H 7.775159 6.966251 -14.526620 0
M  V30 48 H 6.391921 6.880399 -13.506387 0
M  V30 49 H 8.080635 2.503149 -17.243549 0
M  V30 50 H 9.170728 2.071725 -15.985346 0
M  V30 51 H 7.333016 -1.614191 -17.673318 0
M  V30 52 H 6.215603 -1.547486 -16.302608 0
M  V30 53 H 9.390409 5.958833 -15.371856 0
M  V30 54 H 11.025948 5.776817 -14.768884 0
M  V30 55 H 10.086217 4.390273 -15.231934 0
M  V30 56 H 4.575448 3.991101 -11.766939 0
M  V30 57 H 6.326901 3.909705 -11.356721 0
M  V30 58 H 8.327576 5.990047 -6.107201 0
M  V30 59 H 10.065114 6.019273 -5.790318 0
M  V30 60 H 5.832757 7.829421 -15.729500 0
M  V30 61 H 4.975743 6.306252 -15.536674 0
M  V30 62 H 6.420007 6.378912 -16.533704 0
M  V30 63 H 8.203891 2.787013 -11.985034 0
M  V30 64 H 9.316121 2.615847 -13.184927 0
M  V30 65 H 4.579776 -1.198871 -20.276100 0
M  V30 66 H 8.375677 6.239463 -10.809370 0
M  V30 67 H 9.776229 5.201495 -10.638184 0
M  V30 68 H 5.571894 0.817427 -16.881372 0
M  V30 69 H 11.109656 7.141376 -9.945036 0
M  V30 70 H 9.848674 8.246517 -10.467413 0
M  V30 71 H 10.831167 6.688133 -12.558637 0
M  V30 72 H 9.198269 7.262678 -12.790044 0
M  V30 73 H 5.868300 -3.652048 -18.645435 0
M  V30 74 H 4.807995 -3.497656 -17.246965 0
M  V30 75 H 4.134795 -3.377357 -18.864864 0
M  V30 76 H 4.774942 1.031489 -19.233623 0
M  V30 77 H 5.959177 0.921932 -20.518223 0
M  V30 78 H 4.975329 2.239235 -13.583146 0
M  V30 79 H 8.367395 7.328425 -8.874727 0
M  V30 80 H 10.205958 4.535493 -12.949082 0
M  V30 81 H 7.670242 0.146600 -15.553531 0
M  V30 END ATOM
M  V30 BEGIN BOND
M  V30 1 1 2 1
M  V30 2 1 5 1
M  V30 3 1 7 4
M  V30 4 1 9 1
M  V30 5 1 10 9
M  V30 6 1 11 8
M  V30 7 1 13 4
M  V30 8 1 13 6
M  V30 9 1 15 4
M  V30 10 1 16 11
M  V30 11 1 17 14
M  V30 12 1 18 3
M  V30 13 1 19 3
M  V30 14 1 19 8
M  V30 15 1 19 12 CFG=3
M  V30 16 1 19 15
M  V30 17 1 17 20 CFG=1
M  V30 18 1 21 5
M  V30 19 1 21 10
M  V30 20 1 22 12
M  V30 21 1 24 7
M  V30 22 1 24 8
M  V30 23 1 25 17
M  V30 24 1 27 6
M  V30 25 1 27 14
M  V30 26 1 27 23
M  V30 27 1 28 9
M  V30 28 1 28 26
M  V30 29 1 29 11
M  V30 30 1 29 26
M  V30 31 1 30 17
M  V30 32 1 31 23
M  V30 33 1 31 25
M  V30 34 1 32 3
M  V30 35 1 32 7
M  V30 36 1 32 18
M  V30 37 1 33 25
M  V30 38 1 1 34 CFG=3
M  V30 39 1 35 2
M  V30 40 1 36 2
M  V30 41 1 37 2
M  V30 42 1 3 38 CFG=3
M  V30 43 1 4 39 CFG=3
M  V30 44 1 40 5
M  V30 45 1 41 5
M  V30 46 1 42 6
M  V30 47 1 7 43 CFG=3
M  V30 48 1 8 44 CFG=1
M  V30 49 1 45 10
M  V30 50 1 46 10
M  V30 51 1 47 12
M  V30 52 1 48 12
M  V30 53 1 49 13
M  V30 54 1 50 13
M  V30 55 1 51 14
M  V30 56 1 52 14
M  V30 57 1 53 16
M  V30 58 1 54 16
M  V30 59 1 55 16
M  V30 60 1 56 18
M  V30 61 1 57 18
M  V30 62 1 58 21
M  V30 63 1 59 21
M  V30 64 1 60 22
M  V30 65 1 61 22
M  V30 66 1 62 22
M  V30 67 1 63 24
M  V30 68 1 64 24
M  V30 69 1 25 65 CFG=3
M  V30 70 1 66 26
M  V30 71 1 67 26
M  V30 72 1 27 68 CFG=1
M  V30 73 1 69 28
M  V30 74 1 70 28
M  V30 75 1 71 29
M  V30 76 1 72 29
M  V30 77 1 73 30
M  V30 78 1 74 30
M  V30 79 1 75 30
M  V30 80 1 76 31
M  V30 81 1 77 31
M  V30 82 1 32 78 CFG=3
M  V30 83 1 9 79 CFG=3
M  V30 84 1 11 80 CFG=1
M  V30 85 1 81 6
M  V30 END BOND
M  V30 END CTAB
M  END
>  <i_epik_Tot_Q>  (1) 
3

>  <i_epik_Tot_abs_Q>  (1) 
3

>  <i_i_glide_confnum>  (1) 
662

>  <i_i_glide_lignum>  (1) 
135

>  <i_i_glide_posenum>  (1) 
379

>  <i_i_glide_rotatable_bonds>  (1) 
9

>  <i_lp_mmshare_version>  (1) 
72125

>  <i_m_source_file_index>  (1) 
79

>  <i_f3d_flags>  (1) 
0

>  <num_sample>  (1) 
100

>  <b_lp_Chiralities_Consistent>  (1) 
1

>  <r_epik_Charging_Adjusted_Penalty>  (1) 
1.7942086838225126

>  <r_epik_Ionization_Penalty>  (1) 
0.94562311220168549

>  <r_epik_Ionization_Penalty_Charging>  (1) 
0.94562311220168382

>  <r_epik_Ionization_Penalty_Neutral>  (1) 
1.710257484888175e-15

>  <r_epik_State_Penalty>  (1) 
0.84858557162082893

>  <r_glide_ring_energy>  (1) 
0

>  <r_i_docking_score>  (1) 
-5.1315793227143107

>  <r_i_glide_ecoul>  (1) 
-10.03446527871932

>  <r_i_glide_eff_state_penalty>  (1) 
0.84858557162082893

>  <r_i_glide_einternal>  (1) 
4.1213352296005041

>  <r_i_glide_emodel>  (1) 
-51.778620122165577

>  <r_i_glide_emodel_strain>  (1) 
0.55885111594137982

>  <r_i_glide_energy>  (1) 
-35.901137872410501

>  <r_i_glide_erotb>  (1) 
0.72404097212868179

>  <r_i_glide_esite>  (1) 
-0.10000000000000001

>  <r_i_glide_evdw>  (1) 
-25.866672593691177

>  <r_i_glide_gscore>  (1) 
-5.9801648943351395

>  <r_i_glide_gscore_strain>  (1) 
0

>  <r_i_glide_hbond>  (1) 
-0.20000000000000001

>  <r_i_glide_ligand_efficiency>  (1) 
-0.15550240371861548

>  <r_i_glide_ligand_efficiency_ln>  (1) 
-1.1412366714759199

>  <r_i_glide_ligand_efficiency_sa>  (1) 
-0.49877929832432982

>  <r_i_glide_lipo>  (1) 
-2.2176707686673325

>  <r_i_glide_metal>  (1) 
-0

>  <r_i_glide_rewards>  (1) 
-1.3880316763040312

>  <r_lp_Energy>  (1) 
79.635677999999999

>  <s_epik_Chemistry_Notes>  (1) 
This compound contains an acetal/aminal-like group ( X-CH(R)-Y where X, Y are N, S, or O) that may be acid/base labile, releasing an aldehyde.

>  <s_epik_cmdline>  (1) 
J2VwaWtfcHl0aG9uJywgJy1waHQnLCAnMS4wJywgJy1waCcsICc3LjQnLCAnLXRuJywgJzgnLCAnLW1hJywgJzUwMCcsICctaW1hZScsICc8aW5maWxlLm1hZT4nLCAnLW9tYWUnLCAnPG91dGZpbGUubWFlPic=

>  <s_epik_input>  (1) 
W0NIM11bQ0BASF0xW0NIMl1bQ0gyXVtDSDJdTjFbQ0gyXVtDSDJdW0NIMl1OKFtDSDNdKVtDQEBIXTJbQ0gyXVtDQEBIXShbQ0BASF0oW0NIMl0zKVtDQEBIXTNbQ0BAXTI0W0NIMl1bQ0gzXSlbQ0BASF0oTzQpW0NIMl1bTkhdW0NASF0oW0NIMl1bQ0BdNShGKVtDSDNdKU9bQ0gyXVtDQEhdNUY=

>  <s_glide_docking_method>  (1) 
confgen

>  <s_i_glide_gridfile>  (1) 
gpcr_drd2_6luq_protein_autoprepared_prepared

>  <s_lp_Force_Field>  (1) 
S-OPLS

>  <s_lp_Variant>  (1) 
DiffSBDD_78-7

>  <s_m_source_file>  (1) 
generated_generic_title2_ligand_DiffSBDD_2026-06-23_prepared.sdf

>  <GenAI_Model>  (1) 
DiffSBDD

>  <Protein>  (1) 
generic_title2

$$$$
DiffSBDD_76
     RDKit          3D

  0  0  0  0  0  0  0  0  0  0999 V3000
M  V30 BEGIN CTAB
M  V30 COUNTS 53 56 0 0 1
M  V30 BEGIN ATOM
M  V30 1 N 7.903228 5.673629 -11.542756 0
M  V30 2 N 11.828327 8.282211 -4.108167 0
M  V30 3 C 6.612904 5.341582 -13.608157 0 CFG=2
M  V30 4 C 11.532552 7.806510 -5.451995 0
M  V30 5 F 10.704709 7.990217 -10.774703 0
M  V30 6 C 12.135887 7.624320 -3.005930 0
M  V30 7 C 6.469507 5.836879 -15.037203 0
M  V30 8 C 7.819417 6.029677 -12.949505 0
M  V30 9 C 9.166455 6.173161 -7.354460 0
M  V30 10 C 9.285226 5.548623 -11.116746 0
M  V30 11 C 6.175424 6.789040 -17.678335 0
M  V30 12 N 11.821969 9.589835 -3.837802 0
M  V30 13 C 6.878792 5.592454 -17.442814 0
M  V30 14 C 5.626065 7.508818 -16.601883 0
M  V30 15 C 7.775410 3.821130 -15.897390 0
M  V30 16 N 12.175409 6.253600 -3.024632 0
M  V30 17 C 7.860581 3.324181 -14.451142 0
M  V30 18 C 5.775408 7.036887 -15.286441 0
M  V30 19 C 9.876453 7.384509 -7.250704 0
M  V30 20 C 6.708665 3.811825 -13.575885 0
M  V30 21 O 8.300698 3.171336 -16.800228 0
M  V30 22 C 10.394791 7.998138 -8.407138 0
M  V30 23 N 12.363984 8.357813 -1.950944 0
M  V30 24 C 10.091467 8.018491 -5.898738 0
M  V30 25 C 8.975412 5.574558 -8.610940 0
M  V30 26 C 10.203676 7.400830 -9.664148 0
M  V30 27 C 9.493698 6.187308 -9.767440 0
M  V30 28 C 12.131516 9.590226 -2.523805 0
M  V30 29 C 7.029832 5.106057 -16.124801 0
M  V30 30 H 7.413415 6.340423 -10.947795 0
M  V30 31 H 5.712097 5.632022 -13.064267 0
M  V30 32 H 12.175408 8.349530 -6.146085 0
M  V30 33 H 11.775418 6.746927 -5.531596 0
M  V30 34 H 7.739276 7.115113 -13.023393 0
M  V30 35 H 8.724736 5.752375 -13.490136 0
M  V30 36 H 8.766540 5.704360 -6.469389 0
M  V30 37 H 9.972660 6.009719 -11.826796 0
M  V30 38 H 9.550823 4.491814 -11.071626 0
M  V30 39 H 6.058968 7.156577 -18.687340 0
M  V30 40 H 7.299381 5.044507 -18.274189 0
M  V30 41 H 5.089485 8.425585 -16.785766 0
M  V30 42 H 12.363020 5.721996 -2.186675 0
M  V30 43 H 11.941017 5.729426 -3.855062 0
M  V30 44 H 7.877313 2.234167 -14.459481 0
M  V30 45 H 8.811127 3.645320 -14.027017 0
M  V30 46 H 5.353159 7.595229 -14.463935 0
M  V30 47 H 6.832082 3.447407 -12.555831 0
M  V30 48 H 5.775411 3.380156 -13.934876 0
M  V30 49 H 10.941113 8.926049 -8.329080 0
M  V30 50 H 9.421662 7.552414 -5.185152 0
M  V30 51 H 9.842876 9.078595 -5.947364 0
M  V30 52 H 8.427733 4.646908 -8.689314 0
M  V30 53 H 12.175410 10.506263 -1.960463 0
M  V30 END ATOM
M  V30 BEGIN BOND
M  V30 1 1 4 2
M  V30 2 1 6 2
M  V30 3 1 7 3
M  V30 4 1 8 1
M  V30 5 1 8 3
M  V30 6 1 10 1
M  V30 7 1 12 2
M  V30 8 1 13 11
M  V30 9 2 14 11
M  V30 10 1 16 6
M  V30 11 1 17 15
M  V30 12 2 18 7
M  V30 13 1 18 14
M  V30 14 1 19 9
M  V30 15 1 20 3
M  V30 16 1 20 17
M  V30 17 2 21 15
M  V30 18 2 22 19
M  V30 19 2 23 6
M  V30 20 1 24 4
M  V30 21 1 24 19
M  V30 22 2 25 9
M  V30 23 1 26 5
M  V30 24 1 26 22
M  V30 25 1 27 10
M  V30 26 1 27 25
M  V30 27 2 27 26
M  V30 28 2 28 12
M  V30 29 1 28 23
M  V30 30 1 29 7
M  V30 31 2 29 13
M  V30 32 1 29 15
M  V30 33 1 30 1
M  V30 34 1 3 31 CFG=1
M  V30 35 1 32 4
M  V30 36 1 33 4
M  V30 37 1 34 8
M  V30 38 1 35 8
M  V30 39 1 36 9
M  V30 40 1 37 10
M  V30 41 1 38 10
M  V30 42 1 39 11
M  V30 43 1 40 13
M  V30 44 1 41 14
M  V30 45 1 42 16
M  V30 46 1 43 16
M  V30 47 1 44 17
M  V30 48 1 45 17
M  V30 49 1 46 18
M  V30 50 1 47 20
M  V30 51 1 48 20
M  V30 52 1 49 22
M  V30 53 1 50 24
M  V30 54 1 51 24
M  V30 55 1 52 25
M  V30 56 1 53 28
M  V30 END BOND
M  V30 END CTAB
M  END
>  <i_epik_Tot_Q>  (1) 
0

>  <i_epik_Tot_abs_Q>  (1) 
0

>  <i_i_glide_confnum>  (1) 
326

>  <i_i_glide_lignum>  (1) 
126

>  <i_i_glide_posenum>  (1) 
397

>  <i_i_glide_rotatable_bonds>  (1) 
7

>  <i_lp_mmshare_version>  (1) 
72125

>  <i_m_source_file_index>  (1) 
77

>  <i_f3d_flags>  (1) 
0

>  <num_sample>  (1) 
100

>  <b_lp_Chiralities_Consistent>  (1) 
1

>  <r_epik_Charging_Adjusted_Penalty>  (1) 
1.3366453936174523

>  <r_epik_Ionization_Penalty>  (1) 
1.3374163863907844

>  <r_epik_Ionization_Penalty_Charging>  (1) 
0

>  <r_epik_Ionization_Penalty_Neutral>  (1) 
1.3374163863907844

>  <r_epik_State_Penalty>  (1) 
1.3366453936174523

>  <r_glide_ring_energy>  (1) 
0.92034752558819388

>  <r_i_docking_score>  (1) 
-5.1309191514134334

>  <r_i_glide_ecoul>  (1) 
-3.4423110792728044

>  <r_i_glide_eff_state_penalty>  (1) 
1.3366453936174523

>  <r_i_glide_einternal>  (1) 
9.8156748287839886

>  <r_i_glide_emodel>  (1) 
-51.696760132182185

>  <r_i_glide_emodel_strain>  (1) 
1.2256193017970105

>  <r_i_glide_energy>  (1) 
-40.648132464653301

>  <r_i_glide_erotb>  (1) 
0.75709287640511513

>  <r_i_glide_esite>  (1) 
-0.012452130701896226

>  <r_i_glide_evdw>  (1) 
-37.205821385380496

>  <r_i_glide_gscore>  (1) 
-6.4675645450308856

>  <r_i_glide_gscore_strain>  (1) 
0

>  <r_i_glide_hbond>  (1) 
-0.094174188164809047

>  <r_i_glide_ligand_efficiency>  (1) 
-0.17692824660046322

>  <r_i_glide_ligand_efficiency_ln>  (1) 
-1.174850376790098

>  <r_i_glide_ligand_efficiency_sa>  (1) 
-0.54357962896969803

>  <r_i_glide_lipo>  (1) 
-1.7991123501376332

>  <r_i_glide_metal>  (1) 
-0

>  <r_i_glide_rewards>  (1) 
-2.9422810212717172

>  <r_lp_Energy>  (1) 
25.694416999999998

>  <r_lp_tautomer_probability>  (1) 
0.99994999147066566

>  <s_epik_cmdline>  (1) 
J2VwaWtfcHl0aG9uJywgJy1waHQnLCAnMS4wJywgJy1waCcsICc3LjQnLCAnLXRuJywgJzgnLCAnLW1hJywgJzUwMCcsICctaW1hZScsICc8aW5maWxlLm1hZT4nLCAnLW9tYWUnLCAnPG91dGZpbGUubWFlPic=

>  <s_epik_input>  (1) 
W2NIXTFbY0hdW2NIXVtjSF1jKGMxMilDKD1PKVtDSDJdW0NIMl1bQ0BIXTJbQ0gyXVtOSF1bQ0gyXWMoYyhGKVtjSF0zKVtjSF1bY0hdYzNbQ0gyXVtDSDJdbjRjKFtOSDJdKW5bY0hdbjQ=

>  <s_glide_docking_method>  (1) 
confgen

>  <s_i_glide_gridfile>  (1) 
gpcr_drd2_6luq_protein_autoprepared_prepared

>  <s_lp_Force_Field>  (1) 
S-OPLS

>  <s_lp_Variant>  (1) 
DiffSBDD_76-3

>  <s_m_source_file>  (1) 
generated_generic_title2_ligand_DiffSBDD_2026-06-23_prepared.sdf

>  <GenAI_Model>  (1) 
DiffSBDD

>  <Protein>  (1) 
generic_title2

$$$$
DiffSBDD_22
     RDKit          3D

  0  0  0  0  0  0  0  0  0  0999 V3000
M  V30 BEGIN CTAB
M  V30 COUNTS 28 29 0 0 1
M  V30 BEGIN ATOM
M  V30 1 C 9.830853 6.828149 -8.156929 0 CFG=1
M  V30 2 N 9.775409 7.842428 -9.196002 0
M  V30 3 C 9.776188 6.406220 -11.233468 0
M  V30 4 C 12.262288 9.232610 -2.899745 0
M  V30 5 C 10.152424 7.147737 -6.714713 0 CFG=2
M  V30 6 C 11.657620 9.556828 -4.087033 0
M  V30 7 C 10.498057 7.484467 -10.409680 0
M  V30 8 C 10.684516 8.485659 -6.239230 0
M  V30 9 C 11.370857 8.412687 -4.900520 0
M  V30 10 O 8.786737 5.893865 -8.311498 0
M  V30 11 C 11.094420 6.305439 -7.551920 0
M  V30 12 S 12.510519 7.532526 -2.758977 0
M  V30 13 C 11.775409 7.240002 -4.296860 0
M  V30 14 H 8.792778 7.992363 -9.433083 0
M  V30 15 H 10.289629 6.237071 -12.179918 0
M  V30 16 H 9.741721 5.448898 -10.713106 0
M  V30 17 H 8.750066 6.700088 -11.459442 0
M  V30 18 H 12.574083 9.894563 -2.105612 0
M  V30 19 H 9.535293 6.630727 -5.980994 0
M  V30 20 H 11.398837 10.559069 -4.395695 0
M  V30 21 H 10.574479 8.387511 -11.013783 0
M  V30 22 H 11.518492 7.188739 -10.171146 0
M  V30 23 H 11.359080 8.898422 -6.990336 0
M  V30 24 H 9.840023 9.172289 -6.186352 0
M  V30 25 H 7.956082 6.357613 -8.248526 0
M  V30 26 H 11.157433 5.244360 -7.325693 0
M  V30 27 H 12.027272 6.790228 -7.826549 0
M  V30 28 H 11.679804 6.228646 -4.666936 0
M  V30 END ATOM
M  V30 BEGIN BOND
M  V30 1 1 2 1
M  V30 2 1 5 1
M  V30 3 2 6 4
M  V30 4 1 7 2
M  V30 5 1 7 3
M  V30 6 1 8 5
M  V30 7 1 9 6
M  V30 8 1 9 8
M  V30 9 1 1 10 CFG=1
M  V30 10 1 11 1
M  V30 11 1 11 5
M  V30 12 1 12 4
M  V30 13 2 13 9
M  V30 14 1 13 12
M  V30 15 1 14 2
M  V30 16 1 15 3
M  V30 17 1 16 3
M  V30 18 1 17 3
M  V30 19 1 18 4
M  V30 20 1 5 19 CFG=1
M  V30 21 1 20 6
M  V30 22 1 21 7
M  V30 23 1 22 7
M  V30 24 1 23 8
M  V30 25 1 24 8
M  V30 26 1 25 10
M  V30 27 1 26 11
M  V30 28 1 27 11
M  V30 29 1 28 13
M  V30 END BOND
M  V30 END CTAB
M  END
>  <i_epik_Tot_Q>  (1) 
0

>  <i_epik_Tot_abs_Q>  (1) 
0

>  <i_i_glide_confnum>  (1) 
13

>  <i_i_glide_lignum>  (1) 
39

>  <i_i_glide_posenum>  (1) 
220

>  <i_i_glide_rotatable_bonds>  (1) 
5

>  <i_lp_mmshare_version>  (1) 
72125

>  <i_m_source_file_index>  (1) 
23

>  <i_f3d_flags>  (1) 
0

>  <num_sample>  (1) 
100

>  <b_lp_Chiralities_Consistent>  (1) 
1

>  <r_epik_Charging_Adjusted_Penalty>  (1) 
0.22588015367331185

>  <r_epik_Ionization_Penalty>  (1) 
0.22588404023765496

>  <r_epik_Ionization_Penalty_Charging>  (1) 
0

>  <r_epik_Ionization_Penalty_Neutral>  (1) 
0.22588404023765496

>  <r_epik_State_Penalty>  (1) 
0.22588015367331185

>  <r_glide_ring_energy>  (1) 
0

>  <r_i_docking_score>  (1) 
-5.1301910082807893

>  <r_i_glide_ecoul>  (1) 
-6.4737659711896809

>  <r_i_glide_eff_state_penalty>  (1) 
0.22588015367331185

>  <r_i_glide_einternal>  (1) 
4.1481988209927723

>  <r_i_glide_emodel>  (1) 
-36.258438602012326

>  <r_i_glide_emodel_strain>  (1) 
1.3331099905337638

>  <r_i_glide_energy>  (1) 
-28.782374222405771

>  <r_i_glide_erotb>  (1) 
1.2530290316507966

>  <r_i_glide_esite>  (1) 
-0.061598071677191647

>  <r_i_glide_evdw>  (1) 
-22.308608251216089

>  <r_i_glide_gscore>  (1) 
-5.3560711619541008

>  <r_i_glide_gscore_strain>  (1) 
0

>  <r_i_glide_hbond>  (1) 
-0.34960644027940108

>  <r_i_glide_ligand_efficiency>  (1) 
-0.39463007756006074

>  <r_i_glide_ligand_efficiency_ln>  (1) 
-1.4390642036872583

>  <r_i_glide_ligand_efficiency_sa>  (1) 
-0.92790739018490387

>  <r_i_glide_lipo>  (1) 
-1.8023886894591772

>  <r_i_glide_metal>  (1) 
-0

>  <r_i_glide_rewards>  (1) 
-2.3090116839498704

>  <r_lp_Energy>  (1) 
-2.963994

>  <s_epik_cmdline>  (1) 
J2VwaWtfcHl0aG9uJywgJy1waHQnLCAnMS4wJywgJy1waCcsICc3LjQnLCAnLXRuJywgJzgnLCAnLW1hJywgJzUwMCcsICctaW1hZScsICc8aW5maWxlLm1hZT4nLCAnLW9tYWUnLCAnPG91dGZpbGUubWFlPic=

>  <s_epik_input>  (1) 
W0NIM11bQ0gyXVtOSF1bQ0BdMShbT0hdKVtDQEBIXShbQ0gyXTEpW0NIMl1jMltjSF1bY0hdc1tjSF0y

>  <s_glide_docking_method>  (1) 
confgen

>  <s_i_glide_gridfile>  (1) 
gpcr_drd2_6luq_protein_autoprepared_prepared

>  <s_lp_Force_Field>  (1) 
S-OPLS

>  <s_lp_Variant>  (1) 
DiffSBDD_22-1

>  <s_m_source_file>  (1) 
generated_generic_title2_ligand_DiffSBDD_2026-06-23_prepared.sdf

>  <GenAI_Model>  (1) 
DiffSBDD

>  <Protein>  (1) 
generic_title2

$$$$
DiffSBDD_88
     RDKit          3D

  0  0  0  0  0  0  0  0  0  0999 V3000
M  V30 BEGIN CTAB
M  V30 COUNTS 37 38 0 0 1
M  V30 BEGIN ATOM
M  V30 1 C 6.729603 5.586763 -11.628342 0 CFG=1
M  V30 2 F 6.471686 5.376097 -13.972611 0
M  V30 3 C 12.056574 7.716095 -10.084029 0
M  V30 4 C 12.140250 8.058097 -8.597271 0
M  V30 5 O 10.947058 6.790236 -12.462811 0
M  V30 6 O 10.394544 8.391669 -6.918408 0
M  V30 7 O 5.995614 6.790457 -11.585274 0
M  V30 8 C 10.748557 8.556858 -8.275704 0 CFG=2
M  V30 9 C 9.030600 4.454139 -11.612061 0
M  V30 10 N 10.638767 7.534209 -10.345176 0
M  V30 11 C 6.284216 4.712622 -12.828253 0 CFG=1
M  V30 12 F 8.975376 4.224749 -13.926876 0
M  V30 13 C 8.587097 3.604635 -12.811047 0 CFG=2
M  V30 14 C 10.180471 7.072060 -11.540455 0
M  V30 15 C 6.682632 2.450040 -14.032789 0
M  V30 16 N 8.798969 6.940179 -11.584930 0
M  V30 17 C 8.248382 5.774377 -11.603658 0
M  V30 18 C 9.775713 7.872576 -9.230324 0
M  V30 19 C 7.062802 3.373788 -12.870886 0 CFG=2
M  V30 20 H 6.469067 5.058860 -10.709717 0
M  V30 21 H 12.575379 6.790285 -10.267866 0
M  V30 22 H 12.474851 8.506213 -10.708916 0
M  V30 23 H 12.916296 8.791930 -8.379976 0
M  V30 24 H 12.350035 7.190226 -7.986052 0
M  V30 25 H 9.454217 8.476131 -6.848580 0
M  V30 26 H 6.359496 7.304150 -10.859142 0
M  V30 27 H 10.807771 9.590192 -8.573257 0
M  V30 28 H 10.113426 4.550834 -11.635227 0
M  V30 29 H 8.810453 3.933358 -10.682572 0
M  V30 30 H 5.213394 4.517482 -12.767024 0
M  V30 31 H 9.113475 2.649346 -12.785094 0
M  V30 32 H 6.741631 2.960219 -14.994754 0
M  V30 33 H 7.341210 1.582030 -14.078235 0
M  V30 34 H 5.674582 2.064647 -13.903446 0
M  V30 35 H 9.348637 6.964511 -8.801155 0
M  V30 36 H 8.975483 8.558800 -9.508977 0
M  V30 37 H 6.773569 2.822964 -11.985025 0
M  V30 END ATOM
M  V30 BEGIN BOND
M  V30 1 1 4 3
M  V30 2 1 7 1
M  V30 3 1 8 4
M  V30 4 1 8 6
M  V30 5 1 10 3
M  V30 6 1 11 1
M  V30 7 1 11 2
M  V30 8 1 13 9
M  V30 9 1 13 12
M  V30 10 2 14 5
M  V30 11 1 14 10
M  V30 12 1 16 14
M  V30 13 1 17 1
M  V30 14 1 17 9
M  V30 15 2 17 16
M  V30 16 1 18 8
M  V30 17 1 18 10
M  V30 18 1 19 11
M  V30 19 1 19 13
M  V30 20 1 19 15
M  V30 21 1 1 20 CFG=1
M  V30 22 1 21 3
M  V30 23 1 22 3
M  V30 24 1 23 4
M  V30 25 1 24 4
M  V30 26 1 25 6
M  V30 27 1 26 7
M  V30 28 1 8 27 CFG=3
M  V30 29 1 28 9
M  V30 30 1 29 9
M  V30 31 1 11 30 CFG=1
M  V30 32 1 13 31 CFG=1
M  V30 33 1 32 15
M  V30 34 1 33 15
M  V30 35 1 34 15
M  V30 36 1 35 18
M  V30 37 1 36 18
M  V30 38 1 19 37 CFG=1
M  V30 END BOND
M  V30 END CTAB
M  END
>  <i_epik_Tot_Q>  (1) 
0

>  <i_epik_Tot_abs_Q>  (1) 
0

>  <i_i_glide_confnum>  (1) 
7

>  <i_i_glide_lignum>  (1) 
161

>  <i_i_glide_posenum>  (1) 
384

>  <i_i_glide_rotatable_bonds>  (1) 
4

>  <i_lp_mmshare_version>  (1) 
72125

>  <i_m_source_file_index>  (1) 
89

>  <i_f3d_flags>  (1) 
0

>  <num_sample>  (1) 
100

>  <b_lp_Chiralities_Consistent>  (1) 
1

>  <r_epik_Charging_Adjusted_Penalty>  (1) 
0.16120785643113181

>  <r_epik_Ionization_Penalty>  (1) 
0.1612079103687071

>  <r_epik_Ionization_Penalty_Charging>  (1) 
0

>  <r_epik_Ionization_Penalty_Neutral>  (1) 
0.1612079103687071

>  <r_epik_State_Penalty>  (1) 
0.16120785643113181

>  <r_glide_ring_energy>  (1) 
0.020324906306446684

>  <r_i_docking_score>  (1) 
-5.1294907770347553

>  <r_i_glide_ecoul>  (1) 
-4.9782481743050075

>  <r_i_glide_eff_state_penalty>  (1) 
0.16120785643113181

>  <r_i_glide_einternal>  (1) 
1.688808165454466

>  <r_i_glide_emodel>  (1) 
-33.578976645077681

>  <r_i_glide_emodel_strain>  (1) 
0.74677054181732672

>  <r_i_glide_energy>  (1) 
-25.890208834100278

>  <r_i_glide_erotb>  (1) 
0.47132455663783185

>  <r_i_glide_esite>  (1) 
-0.078180214602309006

>  <r_i_glide_evdw>  (1) 
-20.91196065979527

>  <r_i_glide_gscore>  (1) 
-5.2906986334658868

>  <r_i_glide_gscore_strain>  (1) 
0

>  <r_i_glide_hbond>  (1) 
-0.16

>  <r_i_glide_ligand_efficiency>  (1) 
-0.26997319879130294

>  <r_i_glide_ligand_efficiency_ln>  (1) 
-1.3004360833384592

>  <r_i_glide_ligand_efficiency_sa>  (1) 
-0.72039692876545014

>  <r_i_glide_lipo>  (1) 
-1.329341099599094

>  <r_i_glide_metal>  (1) 
-0

>  <r_i_glide_rewards>  (1) 
-2.4021666167668014

>  <r_lp_Energy>  (1) 
16.803401000000001

>  <s_epik_Chemistry_Notes>  (1) 
This compound has an imine and may undergo hydrolysis.

>  <s_epik_cmdline>  (1) 
J2VwaWtfcHl0aG9uJywgJy1waHQnLCAnMS4wJywgJy1waCcsICc3LjQnLCAnLXRuJywgJzgnLCAnLW1hJywgJzUwMCcsICctaW1hZScsICc8aW5maWxlLm1hZT4nLCAnLW9tYWUnLCAnPG91dGZpbGUubWFlPic=

>  <s_epik_input>  (1) 
W09IXVtDQEhdMVtDQEBIXShGKVtDQEBIXShbQ0gzXSlbQ0BASF0oRilbQ0gyXUMvMT1OXEMoPU8pTihbQ0gyXTIpW0NIMl1bQ0gyXVtDQEBIXTJbT0hd

>  <s_glide_docking_method>  (1) 
confgen

>  <s_i_glide_gridfile>  (1) 
gpcr_drd2_6luq_protein_autoprepared_prepared

>  <s_lp_Force_Field>  (1) 
S-OPLS

>  <s_lp_Variant>  (1) 
DiffSBDD_88-2

>  <s_m_source_file>  (1) 
generated_generic_title2_ligand_DiffSBDD_2026-06-23_prepared.sdf

>  <GenAI_Model>  (1) 
DiffSBDD

>  <Protein>  (1) 
generic_title2

$$$$
DiffSBDD_59
     RDKit          3D

  0  0  0  0  0  0  0  0  0  0999 V3000
M  V30 BEGIN CTAB
M  V30 COUNTS 68 71 0 0 1
M  V30 BEGIN ATOM
M  V30 1 C 8.148385 2.689080 -15.507097 0 CFG=2
M  V30 2 C 8.039460 2.934474 -18.826780 0
M  V30 3 C 11.592499 7.942601 -4.471459 0
M  V30 4 P 7.452318 2.486058 -13.761533 0 CFG=2
M  V30 5 C 12.360985 9.412035 -2.768633 0
M  V30 6 O 8.101654 6.491082 -13.299555 0
M  V30 7 C 9.910464 7.083052 -10.718701 0
M  V30 8 C 9.916700 6.888864 -8.301014 0
M  V30 9 C 8.727200 4.111771 -15.702343 0
M  V30 10 C 10.544205 8.150535 -8.148120 0
M  V30 11 C 11.087152 8.518149 -6.893212 0
M  V30 12 C 7.132647 -0.289991 -16.062609 0
M  V30 13 N 9.375417 6.469574 -9.521734 0
M  V30 14 C 7.153011 2.259889 -16.617472 0 CFG=1
M  V30 15 O 8.274735 3.791198 -19.675483 0
M  V30 16 C 11.018845 7.619455 -5.795874 0
M  V30 17 O 8.515071 0.719709 -17.734128 0
M  V30 18 C 6.095040 3.716020 -13.543711 0
M  V30 19 C 11.896409 9.241630 -4.072991 0
M  V30 20 C 8.158959 0.746267 -20.131402 0
M  V30 21 O 7.206705 3.116634 -17.758802 0
M  V30 22 C 6.412420 4.308542 -12.168247 0 CFG=2
M  V30 23 C 9.959567 6.019709 -11.824763 0 CFG=1
M  V30 24 C 12.236881 7.187698 -2.416346 0
M  V30 25 O 5.706087 5.509029 -11.919755 0
M  V30 26 C 9.829662 6.032400 -7.212646 0
M  V30 27 C 8.592008 5.743395 -12.455076 0
M  V30 28 C 7.954050 4.400751 -12.039140 0 CFG=2
M  V30 29 C 10.379416 6.390225 -5.981179 0
M  V30 30 N 8.559879 3.278862 -12.745041 0
M  V30 31 O 7.081025 1.103950 -13.355295 0
M  V30 32 N 11.775404 6.892862 -3.631790 0
M  V30 33 N 12.544025 8.385371 -1.917193 0
M  V30 34 C 7.246263 0.809868 -17.117942 0 CFG=1
M  V30 35 C 8.673404 1.520336 -18.906342 0 CFG=1
M  V30 36 N 10.975419 6.390233 -12.785041 0
M  V30 37 H 8.975307 1.990264 -15.585029 0
M  V30 38 H 12.575358 10.390216 -2.387885 0
M  V30 39 H 10.927073 7.440733 -10.554163 0
M  V30 40 H 9.297202 7.937719 -11.008527 0
M  V30 41 H 9.293661 4.188890 -16.629317 0
M  V30 42 H 7.942104 4.867153 -15.732227 0
M  V30 43 H 9.423693 4.390244 -14.914067 0
M  V30 44 H 10.608477 8.834969 -8.980104 0
M  V30 45 H 11.568081 9.476916 -6.780810 0
M  V30 46 H 6.196931 -0.215488 -15.508101 0
M  V30 47 H 7.150387 -1.266276 -16.544014 0
M  V30 48 H 7.961828 -0.265435 -15.356217 0
M  V30 49 H 9.023803 5.527520 -9.595196 0
M  V30 50 H 6.175410 2.388942 -16.183034 0
M  V30 51 H 5.109719 3.255152 -13.585011 0
M  V30 52 H 6.165154 4.485753 -14.311252 0
M  V30 53 H 11.745428 10.085637 -4.727087 0
M  V30 54 H 8.365080 1.289850 -21.054381 0
M  V30 55 H 8.649503 -0.224334 -20.207355 0
M  V30 56 H 7.083899 0.572316 -20.084910 0
M  V30 57 H 6.068636 3.595058 -11.417261 0
M  V30 58 H 10.264987 5.074049 -11.386204 0
M  V30 59 H 12.384256 6.348697 -1.752470 0
M  V30 60 H 5.962422 5.858306 -11.075646 0
M  V30 61 H 9.344640 5.075839 -7.323641 0
M  V30 62 H 8.166643 4.283369 -10.976550 0
M  V30 63 H 10.306670 5.700416 -5.155937 0
M  V30 64 H 9.175629 2.709231 -12.165009 0
M  V30 65 H 6.458234 0.632965 -17.851799 0
M  V30 66 H 9.746581 1.664060 -19.034702 0
M  V30 67 H 11.275600 5.574341 -13.317937 0
M  V30 68 H 10.612064 7.056469 -13.451267 0
M  V30 END ATOM
M  V30 BEGIN BOND
M  V30 1 1 4 1
M  V30 2 1 9 1
M  V30 3 1 10 8
M  V30 4 2 11 10
M  V30 5 1 13 7
M  V30 6 1 13 8
M  V30 7 1 14 1
M  V30 8 2 15 2
M  V30 9 1 16 3
M  V30 10 1 16 11
M  V30 11 1 18 4
M  V30 12 1 19 3
M  V30 13 2 19 5
M  V30 14 1 21 2
M  V30 15 1 21 14
M  V30 16 1 22 18
M  V30 17 1 23 7
M  V30 18 1 25 22
M  V30 19 2 26 8
M  V30 20 2 27 6
M  V30 21 1 27 23
M  V30 22 1 28 22
M  V30 23 1 28 27
M  V30 24 2 29 16
M  V30 25 1 29 26
M  V30 26 1 4 30 CFG=1
M  V30 27 1 30 28
M  V30 28 2 31 4
M  V30 29 2 32 3
M  V30 30 1 32 24
M  V30 31 1 33 5
M  V30 32 2 33 24
M  V30 33 1 34 12
M  V30 34 1 34 14
M  V30 35 1 34 17
M  V30 36 1 35 2
M  V30 37 1 35 17
M  V30 38 1 35 20
M  V30 39 1 36 23
M  V30 40 1 1 37 CFG=1
M  V30 41 1 38 5
M  V30 42 1 39 7
M  V30 43 1 40 7
M  V30 44 1 41 9
M  V30 45 1 42 9
M  V30 46 1 43 9
M  V30 47 1 44 10
M  V30 48 1 45 11
M  V30 49 1 46 12
M  V30 50 1 47 12
M  V30 51 1 48 12
M  V30 52 1 49 13
M  V30 53 1 14 50 CFG=1
M  V30 54 1 51 18
M  V30 55 1 52 18
M  V30 56 1 53 19
M  V30 57 1 54 20
M  V30 58 1 55 20
M  V30 59 1 56 20
M  V30 60 1 22 57 CFG=1
M  V30 61 1 23 58 CFG=1
M  V30 62 1 59 24
M  V30 63 1 60 25
M  V30 64 1 61 26
M  V30 65 1 28 62 CFG=1
M  V30 66 1 63 29
M  V30 67 1 64 30
M  V30 68 1 34 65 CFG=3
M  V30 69 1 35 66 CFG=3
M  V30 70 1 67 36
M  V30 71 1 68 36
M  V30 END BOND
M  V30 END CTAB
M  END
>  <i_epik_Tot_Q>  (1) 
0

>  <i_epik_Tot_abs_Q>  (1) 
0

>  <i_i_glide_confnum>  (1) 
662

>  <i_i_glide_lignum>  (1) 
93

>  <i_i_glide_posenum>  (1) 
58

>  <i_i_glide_rotatable_bonds>  (1) 
9

>  <i_lp_mmshare_version>  (1) 
72125

>  <i_m_source_file_index>  (1) 
60

>  <i_f3d_flags>  (1) 
0

>  <num_sample>  (1) 
100

>  <b_lp_Chiralities_Consistent>  (1) 
1

>  <r_epik_Charging_Adjusted_Penalty>  (1) 
0.17519301337449719

>  <r_epik_Ionization_Penalty>  (1) 
0.17525123447418861

>  <r_epik_Ionization_Penalty_Charging>  (1) 
0

>  <r_epik_Ionization_Penalty_Neutral>  (1) 
0.17525123447418861

>  <r_epik_State_Penalty>  (1) 
0.17519301337449719

>  <r_glide_ring_energy>  (1) 
0.33568593268258745

>  <r_i_docking_score>  (1) 
-5.1267491561575547

>  <r_i_glide_ecoul>  (1) 
-3.9621621371378222

>  <r_i_glide_eff_state_penalty>  (1) 
0.17519301337449719

>  <r_i_glide_einternal>  (1) 
19.1733487331392

>  <r_i_glide_emodel>  (1) 
-46.536158083678316

>  <r_i_glide_emodel_strain>  (1) 
0.87782482520491101

>  <r_i_glide_energy>  (1) 
-42.477679797722665

>  <r_i_glide_erotb>  (1) 
0.61329316708187109

>  <r_i_glide_esite>  (1) 
-0.10000000000000001

>  <r_i_glide_evdw>  (1) 
-38.515517660584841

>  <r_i_glide_gscore>  (1) 
-5.3019421695320519

>  <r_i_glide_gscore_strain>  (1) 
0

>  <r_i_glide_hbond>  (1) 
-0.32000000000000001

>  <r_i_glide_ligand_efficiency>  (1) 
-0.14240969878215429

>  <r_i_glide_ligand_efficiency_ln>  (1) 
-1.1185181571180383

>  <r_i_glide_ligand_efficiency_sa>  (1) 
-0.47022646491567127

>  <r_i_glide_lipo>  (1) 
-2.152804772021871

>  <r_i_glide_metal>  (1) 
-0

>  <r_i_glide_rewards>  (1) 
-0.82233036099213497

>  <r_lp_Energy>  (1) 
53.336779999999997

>  <r_lp_tautomer_probability>  (1) 
0.99990000499974985

>  <s_epik_Chemistry_Notes>  (1) 
This compound has an ester and may undergo hydrolysis at high or low pH.

>  <s_epik_cmdline>  (1) 
J2VwaWtfcHl0aG9uJywgJy1waHQnLCAnMS4wJywgJy1waCcsICc3LjQnLCAnLXRuJywgJzgnLCAnLW1hJywgJzUwMCcsICctaW1hZScsICc8aW5maWxlLm1hZT4nLCAnLW9tYWUnLCAnPG91dGZpbGUubWFlPic=

>  <s_epik_input>  (1) 
W0NIM11bQ0BASF0xT1tDQEBIXShbQ0gzXSlbQ0BIXShPQzE9TylbQ0BASF0oW0NIM10pW1BAXTIoPU8pW0NIMl1bQ0BIXShbT0hdKVtDQEBIXShbTkhdMilDKD1PKVtDQEBIXShbTkgyXSlbQ0gyXVtOSF1jM1tjSF1bY0hdYyhbY0hdW2NIXTMpLWM0W2NIXVtjSF1uW2NIXW40

>  <s_glide_docking_method>  (1) 
confgen

>  <s_i_glide_gridfile>  (1) 
gpcr_drd2_6luq_protein_autoprepared_prepared

>  <s_lp_Force_Field>  (1) 
S-OPLS

>  <s_lp_Variant>  (1) 
DiffSBDD_59-1

>  <s_m_source_file>  (1) 
generated_generic_title2_ligand_DiffSBDD_2026-06-23_prepared.sdf

>  <GenAI_Model>  (1) 
DiffSBDD

>  <Protein>  (1) 
generic_title2

$$$$
DiffSBDD_59
     RDKit          3D

  0  0  0  0  0  0  0  0  0  0999 V3000
M  V30 BEGIN CTAB
M  V30 COUNTS 68 71 0 0 1
M  V30 BEGIN ATOM
M  V30 1 C 8.441225 4.297930 -15.988725 0 CFG=2
M  V30 2 C 8.321639 5.647137 -19.066863 0
M  V30 3 C 11.618846 7.956771 -4.384988 0
M  V30 4 P 7.644624 3.687702 -14.394662 0 CFG=2
M  V30 5 C 12.175408 9.411479 -2.582844 0
M  V30 6 O 8.366705 7.496545 -12.785019 0
M  V30 7 C 10.475891 7.359290 -10.692645 0
M  V30 8 C 10.230965 7.049814 -8.340723 0
M  V30 9 C 9.235331 5.590030 -15.724226 0
M  V30 10 C 10.761270 8.328307 -8.068262 0
M  V30 11 C 11.212326 8.636677 -6.774758 0
M  V30 12 C 7.033306 1.847459 -17.377822 0
M  V30 13 N 9.775410 6.713867 -9.605380 0
M  V30 14 C 7.383586 4.438535 -17.123535 0 CFG=1
M  V30 15 O 8.779721 6.674933 -19.560957 0
M  V30 16 C 11.156827 7.661712 -5.748086 0
M  V30 17 O 8.357597 3.161945 -18.850833 0
M  V30 18 C 6.346717 4.918401 -13.947106 0
M  V30 19 C 11.814326 9.259675 -3.919868 0
M  V30 20 C 7.626894 4.112895 -20.976690 0
M  V30 21 O 7.584723 5.606395 -17.921259 0
M  V30 22 C 6.610733 5.155099 -12.460011 0 CFG=2
M  V30 23 C 10.356027 6.444319 -11.903027 0 CFG=1
M  V30 24 C 12.175404 7.167392 -2.322481 0
M  V30 25 O 5.933173 6.307381 -11.985072 0
M  V30 26 C 10.161455 6.096575 -7.330697 0
M  V30 27 C 8.896308 6.462300 -12.385021 0
M  V30 28 C 8.152191 5.117362 -12.260978 0 CFG=2
M  V30 29 C 10.630951 6.390227 -6.051098 0
M  V30 30 N 8.716461 4.121148 -13.152983 0
M  V30 31 O 7.179648 2.274533 -14.384770 0
M  V30 32 N 11.792152 6.889278 -3.570807 0
M  V30 33 N 12.373081 8.365063 -1.760656 0
M  V30 34 C 7.195348 3.216289 -18.046682 0 CFG=1
M  V30 35 C 8.525355 4.268412 -19.736355 0 CFG=1
M  V30 36 N 11.375414 6.790227 -12.882073 0
M  V30 37 H 9.183699 3.555900 -16.280865 0
M  V30 38 H 12.286392 10.390225 -2.156292 0
M  V30 39 H 11.530570 7.492202 -10.444414 0
M  V30 40 H 10.049939 8.344291 -10.890714 0
M  V30 41 H 9.755846 5.944588 -16.613327 0
M  V30 42 H 8.575398 6.382572 -15.373052 0
M  V30 43 H 10.011474 5.431683 -14.978294 0
M  V30 44 H 10.812931 9.075553 -8.845757 0
M  V30 45 H 11.611026 9.617497 -6.572450 0
M  V30 46 H 6.175380 1.829164 -16.709012 0
M  V30 47 H 6.872815 1.072358 -18.127313 0
M  V30 48 H 7.919917 1.563398 -16.810545 0
M  V30 49 H 9.486492 5.760119 -9.759078 0
M  V30 50 H 6.442709 4.645424 -16.623522 0
M  V30 51 H 5.345774 4.554042 -14.166145 0
M  V30 52 H 6.511469 5.841692 -14.501404 0
M  V30 53 H 11.652601 10.117417 -4.551448 0
M  V30 54 H 7.858284 4.874168 -21.721653 0
M  V30 55 H 7.778718 3.140065 -21.444665 0
M  V30 56 H 6.568002 4.206462 -20.738426 0
M  V30 57 H 6.193188 4.308078 -11.912391 0
M  V30 58 H 10.575399 5.426995 -11.586150 0
M  V30 59 H 12.335718 6.314633 -1.678995 0
M  V30 60 H 6.255899 6.545887 -11.120989 0
M  V30 61 H 9.752055 5.121528 -7.541842 0
M  V30 62 H 8.311302 4.781100 -11.236102 0
M  V30 63 H 10.575331 5.635608 -5.282156 0
M  V30 64 H 9.264912 3.398053 -12.691411 0
M  V30 65 H 6.313053 3.374256 -18.667972 0
M  V30 66 H 9.560851 4.231432 -20.074186 0
M  V30 67 H 11.482233 6.057888 -13.573882 0
M  V30 68 H 11.119806 7.626407 -13.387934 0
M  V30 END ATOM
M  V30 BEGIN BOND
M  V30 1 1 4 1
M  V30 2 1 9 1
M  V30 3 1 10 8
M  V30 4 2 11 10
M  V30 5 1 13 7
M  V30 6 1 13 8
M  V30 7 1 14 1
M  V30 8 2 15 2
M  V30 9 1 16 3
M  V30 10 1 16 11
M  V30 11 1 18 4
M  V30 12 1 19 3
M  V30 13 2 19 5
M  V30 14 1 21 2
M  V30 15 1 21 14
M  V30 16 1 22 18
M  V30 17 1 23 7
M  V30 18 1 25 22
M  V30 19 2 26 8
M  V30 20 2 27 6
M  V30 21 1 27 23
M  V30 22 1 28 22
M  V30 23 1 28 27
M  V30 24 2 29 16
M  V30 25 1 29 26
M  V30 26 1 4 30 CFG=1
M  V30 27 1 30 28
M  V30 28 2 31 4
M  V30 29 2 32 3
M  V30 30 1 32 24
M  V30 31 1 33 5
M  V30 32 2 33 24
M  V30 33 1 34 12
M  V30 34 1 34 14
M  V30 35 1 34 17
M  V30 36 1 35 2
M  V30 37 1 35 17
M  V30 38 1 35 20
M  V30 39 1 36 23
M  V30 40 1 1 37 CFG=3
M  V30 41 1 38 5
M  V30 42 1 39 7
M  V30 43 1 40 7
M  V30 44 1 41 9
M  V30 45 1 42 9
M  V30 46 1 43 9
M  V30 47 1 44 10
M  V30 48 1 45 11
M  V30 49 1 46 12
M  V30 50 1 47 12
M  V30 51 1 48 12
M  V30 52 1 49 13
M  V30 53 1 14 50 CFG=1
M  V30 54 1 51 18
M  V30 55 1 52 18
M  V30 56 1 53 19
M  V30 57 1 54 20
M  V30 58 1 55 20
M  V30 59 1 56 20
M  V30 60 1 22 57 CFG=1
M  V30 61 1 23 58 CFG=1
M  V30 62 1 59 24
M  V30 63 1 60 25
M  V30 64 1 61 26
M  V30 65 1 28 62 CFG=1
M  V30 66 1 63 29
M  V30 67 1 64 30
M  V30 68 1 34 65 CFG=3
M  V30 69 1 35 66 CFG=3
M  V30 70 1 67 36
M  V30 71 1 68 36
M  V30 END BOND
M  V30 END CTAB
M  END
>  <i_epik_Tot_Q>  (1) 
0

>  <i_epik_Tot_abs_Q>  (1) 
0

>  <i_i_glide_confnum>  (1) 
705

>  <i_i_glide_lignum>  (1) 
93

>  <i_i_glide_posenum>  (1) 
26

>  <i_i_glide_rotatable_bonds>  (1) 
9

>  <i_lp_mmshare_version>  (1) 
72125

>  <i_m_source_file_index>  (1) 
60

>  <i_f3d_flags>  (1) 
0

>  <num_sample>  (1) 
100

>  <b_lp_Chiralities_Consistent>  (1) 
1

>  <r_epik_Charging_Adjusted_Penalty>  (1) 
0.17519301337449719

>  <r_epik_Ionization_Penalty>  (1) 
0.17525123447418861

>  <r_epik_Ionization_Penalty_Charging>  (1) 
0

>  <r_epik_Ionization_Penalty_Neutral>  (1) 
0.17525123447418861

>  <r_epik_State_Penalty>  (1) 
0.17519301337449719

>  <r_glide_ring_energy>  (1) 
0.33568593268258745

>  <r_i_docking_score>  (1) 
-5.1253930224076409

>  <r_i_glide_ecoul>  (1) 
-2.7528548828261665

>  <r_i_glide_eff_state_penalty>  (1) 
0.17519301337449719

>  <r_i_glide_einternal>  (1) 
18.530361785687013

>  <r_i_glide_emodel>  (1) 
-47.731353332122289

>  <r_i_glide_emodel_strain>  (1) 
0.91270847918868725

>  <r_i_glide_energy>  (1) 
-43.389979921771243

>  <r_i_glide_erotb>  (1) 
0.61329316708187109

>  <r_i_glide_esite>  (1) 
-0.091042950466608652

>  <r_i_glide_evdw>  (1) 
-40.637125038945079

>  <r_i_glide_gscore>  (1) 
-5.3005860357821382

>  <r_i_glide_gscore_strain>  (1) 
0

>  <r_i_glide_hbond>  (1) 
-0.30011778023963653

>  <r_i_glide_ligand_efficiency>  (1) 
-0.14237202840021224

>  <r_i_glide_ligand_efficiency_ln>  (1) 
-1.1182222853723067

>  <r_i_glide_ligand_efficiency_sa>  (1) 
-0.4701020800550606

>  <r_i_glide_lipo>  (1) 
-2.230692127872786

>  <r_i_glide_metal>  (1) 
-0

>  <r_i_glide_rewards>  (1) 
-0.84724185991379808

>  <r_lp_Energy>  (1) 
53.336779999999997

>  <r_lp_tautomer_probability>  (1) 
0.99990000499974985

>  <s_epik_Chemistry_Notes>  (1) 
This compound has an ester and may undergo hydrolysis at high or low pH.

>  <s_epik_cmdline>  (1) 
J2VwaWtfcHl0aG9uJywgJy1waHQnLCAnMS4wJywgJy1waCcsICc3LjQnLCAnLXRuJywgJzgnLCAnLW1hJywgJzUwMCcsICctaW1hZScsICc8aW5maWxlLm1hZT4nLCAnLW9tYWUnLCAnPG91dGZpbGUubWFlPic=

>  <s_epik_input>  (1) 
W0NIM11bQ0BASF0xT1tDQEBIXShbQ0gzXSlbQ0BIXShPQzE9TylbQ0BASF0oW0NIM10pW1BAXTIoPU8pW0NIMl1bQ0BIXShbT0hdKVtDQEBIXShbTkhdMilDKD1PKVtDQEBIXShbTkgyXSlbQ0gyXVtOSF1jM1tjSF1bY0hdYyhbY0hdW2NIXTMpLWM0W2NIXVtjSF1uW2NIXW40

>  <s_glide_docking_method>  (1) 
confgen

>  <s_i_glide_gridfile>  (1) 
gpcr_drd2_6luq_protein_autoprepared_prepared

>  <s_lp_Force_Field>  (1) 
S-OPLS

>  <s_lp_Variant>  (1) 
DiffSBDD_59-1

>  <s_m_source_file>  (1) 
generated_generic_title2_ligand_DiffSBDD_2026-06-23_prepared.sdf

>  <GenAI_Model>  (1) 
DiffSBDD

>  <Protein>  (1) 
generic_title2

$$$$
DiffSBDD_52
     RDKit          3D

  0  0  0  0  0  0  0  0  0  0999 V3000
M  V30 BEGIN CTAB
M  V30 COUNTS 50 53 0 0 1
M  V30 BEGIN ATOM
M  V30 1 C 11.990834 6.562363 -2.608602 0
M  V30 2 F 12.975399 8.307495 -1.185042 0
M  V30 3 C 8.995371 6.637214 -11.462763 0 CFG=1
M  V30 4 C 7.492085 4.078899 -11.662928 0
M  V30 5 C 7.915994 4.790405 -10.400068 0 CFG=2
M  V30 6 C 12.192935 8.991131 -3.237336 0
M  V30 7 C 10.612383 7.665350 -7.230437 0
M  V30 8 C 5.827697 5.790658 -12.658555 0
M  V30 9 C 12.391837 8.003354 -2.355057 0
M  V30 10 N 9.208671 5.317294 -10.857459 0 CFG=2 CHG=1
M  V30 11 C 11.301629 7.325418 -4.976857 0 CFG=2
M  V30 12 O 10.206819 7.026456 -11.773002 0 CHG=-1
M  V30 13 C 5.947915 7.050378 -13.505665 0
M  V30 14 O 10.243821 7.258397 -5.918117 0
M  V30 15 C 11.022995 6.390224 -3.797540 0
M  V30 16 C 7.214695 5.150163 -12.754538 0 CFG=1
M  V30 17 C 7.375416 7.561884 -13.266804 0
M  V30 18 C 10.634264 6.437911 -8.142967 0
M  V30 19 C 11.546060 8.802293 -4.592418 0
M  V30 20 C 9.137325 4.861148 -9.495760 0 CFG=1
M  V30 21 C 9.221229 5.916506 -8.404704 0
M  V30 22 C 8.218453 6.354109 -12.800049 0 CFG=1
M  V30 23 H 12.906094 6.000229 -2.785021 0
M  V30 24 H 11.548452 6.141317 -1.705251 0
M  V30 25 H 8.372104 7.234407 -10.811062 0
M  V30 26 H 8.251088 3.362007 -11.985027 0
M  V30 27 H 6.575374 3.521141 -11.472274 0
M  V30 28 H 7.179310 5.530426 -10.089796 0
M  V30 29 H 12.502320 9.990226 -2.986876 0
M  V30 30 H 9.886323 8.395601 -7.590493 0
M  V30 31 H 11.582562 8.162958 -7.264113 0
M  V30 32 H 5.039066 5.126471 -13.013541 0
M  V30 33 H 5.591643 6.068748 -11.630491 0
M  V30 34 H 12.175409 6.881800 -5.436575 0
M  V30 35 H 5.821809 6.796214 -14.558788 0
M  V30 36 H 5.181647 7.781896 -13.249302 0
M  V30 37 H 11.140392 5.396535 -4.198502 0
M  V30 38 H 9.989101 6.390227 -3.470899 0
M  V30 39 H 7.252968 4.649695 -13.723607 0
M  V30 40 H 7.775406 8.008329 -14.175046 0
M  V30 41 H 7.375394 8.343970 -12.506195 0
M  V30 42 H 11.096157 6.721287 -9.089295 0
M  V30 43 H 11.250635 5.656888 -7.698433 0
M  V30 44 H 10.606387 9.353488 -4.590632 0
M  V30 45 H 12.174849 9.284099 -5.340891 0
M  V30 46 H 9.775408 3.990233 -9.382515 0
M  V30 47 H 8.816503 5.489730 -7.486890 0
M  V30 48 H 8.575413 6.755321 -8.639540 0
M  V30 49 H 8.938758 6.099348 -13.581073 0
M  V30 50 H 9.678501 4.673163 -11.473907 0
M  V30 END ATOM
M  V30 BEGIN BOND
M  V30 1 1 5 4
M  V30 2 1 9 1
M  V30 3 1 9 2
M  V30 4 2 9 6
M  V30 5 1 10 3
M  V30 6 1 10 5
M  V30 7 1 12 3
M  V30 8 1 13 8
M  V30 9 1 14 7
M  V30 10 1 14 11
M  V30 11 1 15 1
M  V30 12 1 15 11
M  V30 13 1 16 4
M  V30 14 1 16 8
M  V30 15 1 17 13
M  V30 16 1 18 7
M  V30 17 1 19 6
M  V30 18 1 19 11
M  V30 19 1 20 5
M  V30 20 1 20 10
M  V30 21 1 21 18
M  V30 22 1 21 20
M  V30 23 1 22 3
M  V30 24 1 22 16
M  V30 25 1 22 17
M  V30 26 1 23 1
M  V30 27 1 24 1
M  V30 28 1 3 25 CFG=1
M  V30 29 1 26 4
M  V30 30 1 27 4
M  V30 31 1 5 28 CFG=1
M  V30 32 1 29 6
M  V30 33 1 30 7
M  V30 34 1 31 7
M  V30 35 1 32 8
M  V30 36 1 33 8
M  V30 37 1 11 34 CFG=3
M  V30 38 1 35 13
M  V30 39 1 36 13
M  V30 40 1 37 15
M  V30 41 1 38 15
M  V30 42 1 16 39 CFG=3
M  V30 43 1 40 17
M  V30 44 1 41 17
M  V30 45 1 42 18
M  V30 46 1 43 18
M  V30 47 1 44 19
M  V30 48 1 45 19
M  V30 49 1 20 46 CFG=1
M  V30 50 1 47 21
M  V30 51 1 48 21
M  V30 52 1 22 49 CFG=3
M  V30 53 1 10 50 CFG=3
M  V30 END BOND
M  V30 END CTAB
M  END
>  <i_epik_Tot_Q>  (1) 
0

>  <i_epik_Tot_abs_Q>  (1) 
2

>  <i_i_glide_confnum>  (1) 
49

>  <i_i_glide_lignum>  (1) 
83

>  <i_i_glide_posenum>  (1) 
347

>  <i_i_glide_rotatable_bonds>  (1) 
5

>  <i_lp_mmshare_version>  (1) 
72125

>  <i_m_source_file_index>  (1) 
53

>  <i_f3d_flags>  (1) 
0

>  <num_sample>  (1) 
100

>  <b_lp_Chiralities_Consistent>  (1) 
1

>  <r_epik_Charging_Adjusted_Penalty>  (1) 
0.66076975529779935

>  <r_epik_Ionization_Penalty>  (1) 
0.32551799850713803

>  <r_epik_Ionization_Penalty_Charging>  (1) 
0.32551799850601437

>  <r_epik_Ionization_Penalty_Neutral>  (1) 
1.1236391675704673e-12

>  <r_epik_State_Penalty>  (1) 
0.33525175679178498

>  <r_glide_ring_energy>  (1) 
0

>  <r_i_docking_score>  (1) 
-5.1242378763132015

>  <r_i_glide_ecoul>  (1) 
-3.0290603124886624

>  <r_i_glide_eff_state_penalty>  (1) 
0.33525175679178498

>  <r_i_glide_einternal>  (1) 
3.640832237205879

>  <r_i_glide_emodel>  (1) 
-35.596516177349308

>  <r_i_glide_emodel_strain>  (1) 
0.99302940651797655

>  <r_i_glide_energy>  (1) 
-27.460752261345569

>  <r_i_glide_erotb>  (1) 
0.58016400484968

>  <r_i_glide_esite>  (1) 
-0.060333720873752154

>  <r_i_glide_evdw>  (1) 
-24.431691948856905

>  <r_i_glide_gscore>  (1) 
-5.4594896331049867

>  <r_i_glide_gscore_strain>  (1) 
0

>  <r_i_glide_hbond>  (1) 
0

>  <r_i_glide_ligand_efficiency>  (1) 
-0.23291990346878189

>  <r_i_glide_ligand_efficiency_ln>  (1) 
-1.2525506480889097

>  <r_i_glide_ligand_efficiency_sa>  (1) 
-0.65265073041198307

>  <r_i_glide_lipo>  (1) 
-1.8410272859797288

>  <r_i_glide_metal>  (1) 
-0

>  <r_i_glide_rewards>  (1) 
-2.4623489867850403

>  <r_lp_Energy>  (1) 
38.746100999999996

>  <s_epik_Chemistry_Notes>  (1) 
This compound contains an acetal/aminal-like group ( X-CH(R)-Y where X, Y are N, S, or O) that may be acid/base labile, releasing an aldehyde.

>  <s_epik_cmdline>  (1) 
J2VwaWtfcHl0aG9uJywgJy1waHQnLCAnMS4wJywgJy1waCcsICc3LjQnLCAnLXRuJywgJzgnLCAnLW1hJywgJzUwMCcsICctaW1hZScsICc8aW5maWxlLm1hZT4nLCAnLW9tYWUnLCAnPG91dGZpbGUubWFlPic=

>  <s_epik_input>  (1) 
RkMxPVtDSF1bQ0gyXVtDQEBIXShbQ0gyXVtDSDJdMSlPW0NIMl1bQ0gyXVtDSDJdW0NAQEhdMk4oW0NASF0yMylbQ0BASF0oW09IXSlbQ0BIXTRbQ0BASF0oW0NIMl0zKVtDSDJdW0NIMl1bQ0gyXTQ=

>  <s_glide_docking_method>  (1) 
confgen

>  <s_i_glide_gridfile>  (1) 
gpcr_drd2_6luq_protein_autoprepared_prepared

>  <s_lp_Force_Field>  (1) 
S-OPLS

>  <s_lp_Variant>  (1) 
DiffSBDD_52-2

>  <s_m_source_file>  (1) 
generated_generic_title2_ligand_DiffSBDD_2026-06-23_prepared.sdf

>  <GenAI_Model>  (1) 
DiffSBDD

>  <Protein>  (1) 
generic_title2

$$$$
DiffSBDD_15
     RDKit          3D

  0  0  0  0  0  0  0  0  0  0999 V3000
M  V30 BEGIN CTAB
M  V30 COUNTS 79 80 0 0 1
M  V30 BEGIN ATOM
M  V30 1 F 12.895444 2.856988 -18.464674 0
M  V30 2 C 9.775471 5.645235 -8.999516 0
M  V30 3 C 9.286215 3.404109 -18.037742 0
M  V30 4 C 10.507117 2.900885 -18.527879 0
M  V30 5 C 7.199889 6.069350 -12.947246 0 CFG=1
M  V30 6 N 8.049773 5.339253 -15.138578 0
M  V30 7 O 10.975347 10.390344 -4.296172 0
M  V30 8 C 10.523159 4.809326 -16.448281 0
M  V30 9 F 9.310719 4.540539 -8.380697 0
M  V30 10 C 11.375415 10.190052 -5.437642 0
M  V30 11 C 7.013375 5.904232 -14.468002 0
M  V30 12 O 6.981523 5.056956 -17.142892 0
M  V30 13 C 7.753645 7.459861 -12.537641 0
M  V30 14 C 5.777085 -0.003051 -19.022508 0
M  V30 15 C 6.146531 0.684594 -17.698205 0 CFG=1
M  V30 16 C 11.325134 6.038642 -7.044859 0
M  V30 17 C 5.389619 4.275593 -12.588409 0
M  V30 18 C 9.284786 4.379558 -16.985529 0
M  V30 19 O 4.475990 -0.545481 -18.940798 0
M  V30 20 O 6.093634 -0.275655 -16.662178 0
M  V30 21 C 12.579518 6.224109 -1.892283 0
M  V30 22 C 10.764398 6.438412 -8.384969 0
M  V30 23 C 10.384231 6.412372 -5.909678 0
M  V30 24 C 9.281592 7.486178 -12.316561 0
M  V30 25 C 11.734061 4.297487 -16.953616 0
M  V30 26 O 6.133769 5.590328 -10.794165 0
M  V30 27 C 10.760328 7.927946 -10.298822 0
M  V30 28 C 11.391527 6.494889 -2.812031 0
M  V30 29 O 5.957931 6.257799 -15.002258 0
M  V30 30 C 11.775816 7.412922 -3.974843 0
M  V30 31 C 5.903428 5.672205 -12.189334 0 CFG=1
M  V30 32 C 11.726043 3.347813 -17.989528 0
M  V30 33 C 7.989258 4.961493 -16.440284 0
M  V30 34 C 10.788586 7.676714 -5.149612 0 CFG=1
M  V30 35 S 7.769093 2.760638 -18.697975 0
M  V30 36 C 11.252074 7.581689 -9.038100 0
M  V30 37 C 7.572238 1.255577 -17.695448 0
M  V30 38 C 9.291678 5.986062 -10.265753 0
M  V30 39 C 9.782046 7.128263 -10.925553 0
M  V30 40 C 11.244931 8.819587 -6.081615 0
M  V30 41 H 10.506725 2.161151 -19.313387 0
M  V30 42 H 7.933830 5.311156 -12.684153 0
M  V30 43 H 8.896881 5.147513 -14.629758 0
M  V30 44 H 10.546511 5.544172 -15.656840 0
M  V30 45 H 11.840967 10.957441 -6.054865 0
M  V30 46 H 7.529260 8.163970 -13.338910 0
M  V30 47 H 7.245269 7.864198 -11.663833 0
M  V30 48 H 6.485442 -0.794427 -19.273166 0
M  V30 49 H 5.795068 0.719147 -19.839599 0
M  V30 50 H 5.436580 1.480466 -17.472043 0
M  V30 51 H 11.482263 4.969063 -7.086165 0
M  V30 52 H 12.320713 6.443029 -6.886832 0
M  V30 53 H 5.049438 4.226400 -13.620309 0
M  V30 54 H 6.157730 3.513817 -12.448154 0
M  V30 55 H 4.540798 3.990537 -11.985178 0
M  V30 56 H 4.504020 -1.309647 -18.384916 0
M  V30 57 H 5.188652 -0.482373 -16.483021 0
M  V30 58 H 12.261748 5.585668 -1.080405 0
M  V30 59 H 13.393193 5.701998 -2.385257 0
M  V30 60 H 12.974956 7.146442 -1.467438 0
M  V30 61 H 9.362899 6.505855 -6.285680 0
M  V30 62 H 10.340147 5.590234 -5.209991 0
M  V30 63 H 9.768533 6.789932 -12.997461 0
M  V30 64 H 9.651701 8.482004 -12.549821 0
M  V30 65 H 12.673238 4.634354 -16.540815 0
M  V30 66 H 6.402748 6.444254 -10.448190 0
M  V30 67 H 11.144189 8.793691 -10.785016 0
M  V30 68 H 10.574570 6.793059 -2.175274 0
M  V30 69 H 11.037545 5.590176 -3.246952 0
M  V30 70 H 12.575414 6.862392 -4.415184 0
M  V30 71 H 12.202953 8.328268 -3.573077 0
M  V30 72 H 5.128723 6.420686 -12.359946 0
M  V30 73 H 9.836759 7.990199 -4.785047 0
M  V30 74 H 12.016033 8.187199 -8.577344 0
M  V30 75 H 7.850426 1.517046 -16.673532 0
M  V30 76 H 8.290509 0.504531 -18.026884 0
M  V30 77 H 8.555699 5.362516 -10.730984 0
M  V30 78 H 12.212297 8.589733 -6.519897 0
M  V30 79 H 10.531909 8.926122 -6.897874 0
M  V30 END ATOM
M  V30 BEGIN BOND
M  V30 1 1 4 3
M  V30 2 1 9 2
M  V30 3 2 10 7
M  V30 4 1 11 5
M  V30 5 1 11 6
M  V30 6 1 13 5
M  V30 7 1 15 14
M  V30 8 2 18 3
M  V30 9 1 18 8
M  V30 10 1 19 14
M  V30 11 1 20 15
M  V30 12 2 22 2
M  V30 13 1 22 16
M  V30 14 1 23 16
M  V30 15 1 24 13
M  V30 16 2 25 8
M  V30 17 1 28 21
M  V30 18 2 29 11
M  V30 19 1 30 28
M  V30 20 1 31 5
M  V30 21 1 31 17
M  V30 22 1 31 26
M  V30 23 1 32 1
M  V30 24 2 32 4
M  V30 25 1 32 25
M  V30 26 1 33 6
M  V30 27 2 33 12
M  V30 28 1 33 18
M  V30 29 1 34 23
M  V30 30 1 34 30
M  V30 31 1 35 3
M  V30 32 1 36 22
M  V30 33 2 36 27
M  V30 34 1 37 15
M  V30 35 1 37 35
M  V30 36 1 38 2
M  V30 37 1 39 24
M  V30 38 1 39 27
M  V30 39 2 39 38
M  V30 40 1 40 10
M  V30 41 1 40 34
M  V30 42 1 41 4
M  V30 43 1 5 42 CFG=1
M  V30 44 1 43 6
M  V30 45 1 44 8
M  V30 46 1 45 10
M  V30 47 1 46 13
M  V30 48 1 47 13
M  V30 49 1 48 14
M  V30 50 1 49 14
M  V30 51 1 15 50 CFG=1
M  V30 52 1 51 16
M  V30 53 1 52 16
M  V30 54 1 53 17
M  V30 55 1 54 17
M  V30 56 1 55 17
M  V30 57 1 56 19
M  V30 58 1 57 20
M  V30 59 1 58 21
M  V30 60 1 59 21
M  V30 61 1 60 21
M  V30 62 1 61 23
M  V30 63 1 62 23
M  V30 64 1 63 24
M  V30 65 1 64 24
M  V30 66 1 65 25
M  V30 67 1 66 26
M  V30 68 1 67 27
M  V30 69 1 68 28
M  V30 70 1 69 28
M  V30 71 1 70 30
M  V30 72 1 71 30
M  V30 73 1 31 72 CFG=1
M  V30 74 1 34 73 CFG=1
M  V30 75 1 74 36
M  V30 76 1 75 37
M  V30 77 1 76 37
M  V30 78 1 77 38
M  V30 79 1 78 40
M  V30 80 1 79 40
M  V30 END BOND
M  V30 END CTAB
M  END
>  <i_epik_Tot_Q>  (1) 
0

>  <i_epik_Tot_abs_Q>  (1) 
0

>  <i_i_glide_confnum>  (1) 
11196

>  <i_i_glide_lignum>  (1) 
30

>  <i_i_glide_posenum>  (1) 
239

>  <i_i_glide_rotatable_bonds>  (1) 
22

>  <i_lp_mmshare_version>  (1) 
72125

>  <i_m_source_file_index>  (1) 
16

>  <i_f3d_flags>  (1) 
0

>  <num_sample>  (1) 
100

>  <b_lp_Chiralities_Consistent>  (1) 
1

>  <r_epik_Charging_Adjusted_Penalty>  (1) 
0

>  <r_epik_Ionization_Penalty>  (1) 
3.4355340850982391e-06

>  <r_epik_Ionization_Penalty_Charging>  (1) 
0

>  <r_epik_Ionization_Penalty_Neutral>  (1) 
3.4355340850982391e-06

>  <r_epik_State_Penalty>  (1) 
-0

>  <r_glide_ring_energy>  (1) 
0

>  <r_i_docking_score>  (1) 
-5.1223823128709132

>  <r_i_glide_ecoul>  (1) 
-3.2835910851806918

>  <r_i_glide_eff_state_penalty>  (1) 
-0

>  <r_i_glide_einternal>  (1) 
29.859614371688195

>  <r_i_glide_emodel>  (1) 
-29.293235454075827

>  <r_i_glide_emodel_strain>  (1) 
3.7747799558076593

>  <r_i_glide_energy>  (1) 
-37.940003647895942

>  <r_i_glide_erotb>  (1) 
0.95789386429869372

>  <r_i_glide_esite>  (1) 
0

>  <r_i_glide_evdw>  (1) 
-34.656412562715254

>  <r_i_glide_gscore>  (1) 
-5.1223823128709132

>  <r_i_glide_gscore_strain>  (1) 
0

>  <r_i_glide_hbond>  (1) 
-0.16

>  <r_i_glide_ligand_efficiency>  (1) 
-0.12805955782177283

>  <r_i_glide_ligand_efficiency_ln>  (1) 
-1.0924534023532275

>  <r_i_glide_ligand_efficiency_sa>  (1) 
-0.43795752723457049

>  <r_i_glide_lipo>  (1) 
-2.0480333398494026

>  <r_i_glide_metal>  (1) 
-0

>  <r_i_glide_rewards>  (1) 
-1.6468835464073388

>  <r_lp_Energy>  (1) 
37.492081999999996

>  <r_lp_tautomer_probability>  (1) 
1

>  <s_epik_cmdline>  (1) 
J2VwaWtfcHl0aG9uJywgJy1waHQnLCAnMS4wJywgJy1waCcsICc3LjQnLCAnLXRuJywgJzgnLCAnLW1hJywgJzUwMCcsICctaW1hZScsICc8aW5maWxlLm1hZT4nLCAnLW9tYWUnLCAnPG91dGZpbGUubWFlPic=

>  <s_epik_input>  (1) 
W09IXVtDSDJdW0NAQEhdKFtPSF0pW0NIMl1TYzFbY0hdYyhGKVtjSF1bY0hdYzFDKD1PKVtOSF1DKD1PKVtDQEhdKFtDQEBIXShbQ0gzXSlbT0hdKVtDSDJdW0NIMl1jKFtjSF0yKVtjSF1bY0hdYyhjMkYpW0NIMl1bQ0gyXVtDQEhdKFtDSDJdW0NIXT1PKVtDSDJdW0NIMl1bQ0gzXQ==

>  <s_glide_docking_method>  (1) 
confgen

>  <s_i_glide_gridfile>  (1) 
gpcr_drd2_6luq_protein_autoprepared_prepared

>  <s_lp_Force_Field>  (1) 
S-OPLS

>  <s_lp_Variant>  (1) 
DiffSBDD_15-1

>  <s_m_source_file>  (1) 
generated_generic_title2_ligand_DiffSBDD_2026-06-23_prepared.sdf

>  <GenAI_Model>  (1) 
DiffSBDD

>  <Protein>  (1) 
generic_title2

$$$$
DiffSBDD_70
     RDKit          3D

  0  0  0  0  0  0  0  0  0  0999 V3000
M  V30 BEGIN CTAB
M  V30 COUNTS 74 78 0 0 1
M  V30 BEGIN ATOM
M  V30 1 C 6.355209 -0.194164 -16.027147 0
M  V30 2 C 9.732165 6.151196 -7.969887 0
M  V30 3 C 9.246126 1.366916 -17.652897 0
M  V30 4 C 9.116053 5.220059 -9.022024 0
M  V30 5 C 17.444029 1.345063 -20.385052 0
M  V30 6 N 15.684041 -0.092960 -19.590465 0
M  V30 7 C 6.944395 6.804589 -12.902120 0
M  V30 8 C 8.516532 5.337243 -11.451764 0 CFG=1
M  V30 9 C 9.818866 5.431149 -12.210995 0
M  V30 10 C 6.868043 1.261614 -18.420747 0
M  V30 11 C 7.145926 5.493845 -12.111998 0 CFG=2
M  V30 12 O 12.956578 3.003164 -19.586237 0
M  V30 13 C 9.501831 6.466103 -11.159109 0 CFG=2
M  V30 14 C 7.277974 4.240613 -14.387685 0
M  V30 15 C 6.823240 4.238172 -12.920578 0
M  V30 16 C 7.802733 1.402706 -17.195827 0 CFG=1
M  V30 17 C 16.969116 3.702721 -20.794560 0
M  V30 18 C 11.581560 2.737607 -19.299685 0
M  V30 19 O 7.652488 0.361775 -16.220289 0
M  V30 20 Cl 19.512553 2.874228 -21.258635 0
M  V30 21 C 7.440948 2.850417 -15.041289 0
M  V30 22 C 9.138488 3.586850 -16.880137 0 CFG=2
M  V30 23 C 17.873141 2.626147 -20.785053 0
M  V30 24 C 6.175388 3.195888 -12.366952 0
M  V30 25 C 8.938033 4.750900 -17.866610 0
M  V30 26 N 9.886888 2.505986 -17.477535 0
M  V30 27 C 15.636619 3.500007 -20.401945 0
M  V30 28 C 11.310823 2.691795 -17.780907 0
M  V30 29 C 16.108027 1.124695 -19.985046 0
M  V30 30 N 13.459065 0.759822 -19.202098 0
M  V30 31 C 14.397397 -0.195496 -19.226995 0
M  V30 32 N 8.575410 5.990227 -10.157872 0 CFG=2 CHG=1
M  V30 33 O 9.751274 0.349292 -18.130188 0
M  V30 34 C 7.777191 2.855748 -16.552780 0 CFG=1
M  V30 35 C 13.890169 1.979542 -19.596311 0
M  V30 36 C 15.213529 2.217354 -19.998639 0
M  V30 37 H 6.354234 -0.809731 -15.127534 0
M  V30 38 H 5.584759 0.567078 -15.909069 0
M  V30 39 H 6.077087 -0.838657 -16.861190 0
M  V30 40 H 10.101487 5.590221 -7.112634 0
M  V30 41 H 10.570719 6.714920 -8.380170 0
M  V30 42 H 8.994333 6.865838 -7.601133 0
M  V30 43 H 8.292151 4.664618 -8.572605 0
M  V30 44 H 9.841360 4.481293 -9.360944 0
M  V30 45 H 18.144604 0.524231 -20.378790 0
M  V30 46 H 5.963447 6.824924 -13.378647 0
M  V30 47 H 6.989734 7.670200 -12.240357 0
M  V30 48 H 7.694903 6.944274 -13.680205 0
M  V30 49 H 10.573156 4.681745 -11.985027 0
M  V30 50 H 9.817783 5.773384 -13.242491 0
M  V30 51 H 7.122532 1.980807 -19.200554 0
M  V30 52 H 6.936637 0.266241 -18.861346 0
M  V30 53 H 5.825856 1.440213 -18.154444 0
M  V30 54 H 6.410114 5.515488 -11.304605 0
M  V30 55 H 9.219693 7.464200 -11.486323 0
M  V30 56 H 6.562809 4.832458 -14.960113 0
M  V30 57 H 8.227608 4.764277 -14.454880 0
M  V30 58 H 17.299459 4.684422 -21.102474 0
M  V30 59 H 11.234233 1.838413 -19.810218 0
M  V30 60 H 11.006903 3.554960 -19.735245 0
M  V30 61 H 8.179990 2.269012 -14.490911 0
M  V30 62 H 6.503494 2.317865 -14.941251 0
M  V30 63 H 9.648422 3.943536 -15.985103 0
M  V30 64 H 5.866701 3.223061 -11.331871 0
M  V30 65 H 5.945325 2.308412 -12.933220 0
M  V30 66 H 8.297792 5.519726 -17.433028 0
M  V30 67 H 9.886144 5.225364 -18.120621 0
M  V30 68 H 8.473976 4.415294 -18.794898 0
M  V30 69 H 14.939908 4.326412 -20.407839 0
M  V30 70 H 11.669134 3.612634 -17.319339 0
M  V30 71 H 11.879032 1.887290 -17.312513 0
M  V30 72 H 14.075659 -1.177487 -18.912472 0
M  V30 73 H 6.975406 3.413830 -17.036601 0
M  V30 74 H 7.838636 6.673862 -9.948764 0
M  V30 END ATOM
M  V30 BEGIN BOND
M  V30 1 1 4 2
M  V30 2 1 8 9 CFG=1
M  V30 3 1 11 7
M  V30 4 1 11 8
M  V30 5 1 13 8
M  V30 6 1 13 9
M  V30 7 1 15 11
M  V30 8 1 15 14
M  V30 9 1 16 3
M  V30 10 1 16 10
M  V30 11 1 18 12
M  V30 12 1 19 1
M  V30 13 1 16 19 CFG=1
M  V30 14 1 21 14
M  V30 15 2 23 5
M  V30 16 1 23 17
M  V30 17 1 23 20
M  V30 18 2 24 15
M  V30 19 1 25 22
M  V30 20 1 26 3
M  V30 21 1 26 22
M  V30 22 2 27 17
M  V30 23 1 28 18
M  V30 24 1 28 26
M  V30 25 1 29 5
M  V30 26 2 29 6
M  V30 27 1 31 6
M  V30 28 2 31 30
M  V30 29 1 32 4
M  V30 30 1 32 8
M  V30 31 1 32 13
M  V30 32 2 33 3
M  V30 33 1 34 16
M  V30 34 1 34 21
M  V30 35 1 34 22
M  V30 36 1 35 12
M  V30 37 1 35 30
M  V30 38 1 36 27
M  V30 39 1 36 29
M  V30 40 2 36 35
M  V30 41 1 37 1
M  V30 42 1 38 1
M  V30 43 1 39 1
M  V30 44 1 40 2
M  V30 45 1 41 2
M  V30 46 1 42 2
M  V30 47 1 43 4
M  V30 48 1 44 4
M  V30 49 1 45 5
M  V30 50 1 46 7
M  V30 51 1 47 7
M  V30 52 1 48 7
M  V30 53 1 49 9
M  V30 54 1 50 9
M  V30 55 1 51 10
M  V30 56 1 52 10
M  V30 57 1 53 10
M  V30 58 1 11 54 CFG=1
M  V30 59 1 13 55 CFG=3
M  V30 60 1 56 14
M  V30 61 1 57 14
M  V30 62 1 58 17
M  V30 63 1 59 18
M  V30 64 1 60 18
M  V30 65 1 61 21
M  V30 66 1 62 21
M  V30 67 1 22 63 CFG=1
M  V30 68 1 64 24
M  V30 69 1 65 24
M  V30 70 1 66 25
M  V30 71 1 67 25
M  V30 72 1 68 25
M  V30 73 1 69 27
M  V30 74 1 70 28
M  V30 75 1 71 28
M  V30 76 1 72 31
M  V30 77 1 34 73 CFG=3
M  V30 78 1 32 74 CFG=1
M  V30 END BOND
M  V30 END CTAB
M  END
>  <i_epik_Tot_Q>  (1) 
1

>  <i_epik_Tot_abs_Q>  (1) 
1

>  <i_i_glide_confnum>  (1) 
264

>  <i_i_glide_lignum>  (1) 
114

>  <i_i_glide_posenum>  (1) 
288

>  <i_i_glide_rotatable_bonds>  (1) 
11

>  <i_lp_mmshare_version>  (1) 
72125

>  <i_m_source_file_index>  (1) 
71

>  <i_f3d_flags>  (1) 
0

>  <num_sample>  (1) 
100

>  <b_lp_Chiralities_Consistent>  (1) 
1

>  <r_epik_Charging_Adjusted_Penalty>  (1) 
0.028882640618341202

>  <r_epik_Ionization_Penalty>  (1) 
0.014531529159765241

>  <r_epik_Ionization_Penalty_Charging>  (1) 
0.014441320309170608

>  <r_epik_Ionization_Penalty_Neutral>  (1) 
9.020885059463329e-05

>  <r_epik_State_Penalty>  (1) 
0.014441320309170594

>  <r_glide_ring_energy>  (1) 
0

>  <r_i_docking_score>  (1) 
-5.1185840402567884

>  <r_i_glide_ecoul>  (1) 
-6.1818179614185595

>  <r_i_glide_eff_state_penalty>  (1) 
0.014441320309170594

>  <r_i_glide_einternal>  (1) 
11.129832965930216

>  <r_i_glide_emodel>  (1) 
-51.203274340984635

>  <r_i_glide_emodel_strain>  (1) 
0.1441125241308896

>  <r_i_glide_energy>  (1) 
-41.259423900927565

>  <r_i_glide_erotb>  (1) 
0.62084064417162321

>  <r_i_glide_esite>  (1) 
-0.094315038572109267

>  <r_i_glide_evdw>  (1) 
-35.077605939509006

>  <r_i_glide_gscore>  (1) 
-5.1330253605659593

>  <r_i_glide_gscore_strain>  (1) 
0

>  <r_i_glide_hbond>  (1) 
-0.20000000000000001

>  <r_i_glide_ligand_efficiency>  (1) 
-0.14218289000713302

>  <r_i_glide_ligand_efficiency_ln>  (1) 
-1.1167367494244296

>  <r_i_glide_ligand_efficiency_sa>  (1) 
-0.46947755884114012

>  <r_i_glide_lipo>  (1) 
-1.6136846733672985

>  <r_i_glide_metal>  (1) 
-0

>  <r_i_glide_rewards>  (1) 
-1.1647133016099405

>  <r_lp_Energy>  (1) 
37.300145999999998

>  <r_lp_tautomer_probability>  (1) 
1

>  <s_epik_cmdline>  (1) 
J2VwaWtfcHl0aG9uJywgJy1waHQnLCAnMS4wJywgJy1waCcsICc3LjQnLCAnLXRuJywgJzgnLCAnLW1hJywgJzUwMCcsICctaW1hZScsICc8aW5maWxlLm1hZT4nLCAnLW9tYWUnLCAnPG91dGZpbGUubWFlPic=

>  <s_epik_input>  (1) 
W2NIXTFjKENsKVtjSF1bY0hdYyhjMTIpYyhuW2NIXW4yKU9bQ0gyXVtDSDJdTihDKD1PKVtDQEBdMyhbQ0gzXSlPW0NIM10pW0NAQEhdKFtDSDNdKVtDQEBIXTNbQ0gyXVtDSDJdQyg9W0NIMl0pW0NASF0oW0NIM10pQzQ1W0NASF0oW0NIMl00KU41W0NIMl1bQ0gzXQ==

>  <s_glide_docking_method>  (1) 
confgen

>  <s_i_glide_gridfile>  (1) 
gpcr_drd2_6luq_protein_autoprepared_prepared

>  <s_lp_Force_Field>  (1) 
S-OPLS

>  <s_lp_Variant>  (1) 
DiffSBDD_70-2

>  <s_m_source_file>  (1) 
generated_generic_title2_ligand_DiffSBDD_2026-06-23_prepared.sdf

>  <GenAI_Model>  (1) 
DiffSBDD

>  <Protein>  (1) 
generic_title2

$$$$
DiffSBDD_92
     RDKit          3D

  0  0  0  0  0  0  0  0  0  0999 V3000
M  V30 BEGIN CTAB
M  V30 COUNTS 50 51 0 0 1
M  V30 BEGIN ATOM
M  V30 1 O 10.175373 6.000905 -12.218762 0
M  V30 2 N 8.975412 6.790228 -10.473520 0
M  V30 3 C 9.149086 6.507383 -11.771360 0
M  V30 4 C 10.894369 6.323486 -3.775995 0
M  V30 5 Cl 6.176354 2.195330 -13.185000 0
M  V30 6 O 8.585937 5.585854 -14.646746 0
M  V30 7 C 11.797342 8.659102 -4.430306 0
M  V30 8 C 7.759095 3.369739 -15.034547 0
M  V30 9 C 6.655749 3.685402 -14.029029 0 CFG=2
M  V30 10 C 12.770891 8.553915 -3.256832 0
M  V30 11 C 12.145769 7.809068 -2.078482 0
M  V30 12 C 7.979795 6.864002 -12.701588 0
M  V30 13 C 9.698573 7.571826 -8.331168 0
M  V30 14 C 7.548658 5.812000 -13.742680 0 CFG=2
M  V30 15 O 7.141239 4.641889 -13.096025 0
M  V30 16 C 9.959949 6.535284 -9.444072 0 CFG=1
M  V30 17 N 10.399714 7.325636 -6.007233 0
M  V30 18 C 8.236511 4.673987 -15.678358 0
M  V30 19 C 10.786085 7.579520 -7.270508 0
M  V30 20 C 11.346863 7.259219 -4.902416 0
M  V30 21 O 11.955063 7.805707 -7.584661 0
M  V30 22 C 11.764760 6.384017 -2.500864 0
M  V30 23 C 9.774926 5.094224 -8.927467 0
M  V30 24 H 8.082774 7.209125 -10.171870 0
M  V30 25 H 9.839577 6.390212 -3.536522 0
M  V30 26 H 10.975347 5.333186 -4.197145 0
M  V30 27 H 12.283945 9.191210 -5.248752 0
M  V30 28 H 10.952895 9.275489 -4.138116 0
M  V30 29 H 7.412068 2.665827 -15.791006 0
M  V30 30 H 8.575376 2.892361 -14.500776 0
M  V30 31 H 5.774950 4.076856 -14.531107 0
M  V30 32 H 13.639898 7.990286 -3.585987 0
M  V30 33 H 13.108357 9.544127 -2.950305 0
M  V30 34 H 12.860016 7.771538 -1.255773 0
M  V30 35 H 11.278486 8.349541 -1.702819 0
M  V30 36 H 7.103299 7.086158 -12.090996 0
M  V30 37 H 8.222171 7.787711 -13.224201 0
M  V30 38 H 8.729323 7.388571 -7.864975 0
M  V30 39 H 9.650642 8.575377 -8.755969 0
M  V30 40 H 6.697237 6.212841 -14.297453 0
M  V30 41 H 10.960917 6.704147 -9.843985 0
M  V30 42 H 9.424504 7.146159 -5.812730 0
M  V30 43 H 7.456867 5.102378 -16.310113 0
M  V30 44 H 9.105346 4.494713 -16.311559 0
M  V30 45 H 12.175413 6.708657 -5.309235 0
M  V30 46 H 12.679364 5.817410 -2.675030 0
M  V30 47 H 11.254440 5.883929 -1.677459 0
M  V30 48 H 10.560975 4.810440 -8.228957 0
M  V30 49 H 8.818747 4.983862 -8.414828 0
M  V30 50 H 9.775480 4.372978 -9.744990 0
M  V30 END ATOM
M  V30 BEGIN BOND
M  V30 1 2 3 1
M  V30 2 1 3 2
M  V30 3 1 9 5
M  V30 4 1 9 8
M  V30 5 1 10 7
M  V30 6 1 11 10
M  V30 7 1 12 3
M  V30 8 1 14 6
M  V30 9 1 14 12
M  V30 10 1 15 9
M  V30 11 1 15 14
M  V30 12 1 16 2
M  V30 13 1 16 13
M  V30 14 1 18 6
M  V30 15 1 18 8
M  V30 16 1 19 13
M  V30 17 1 19 17
M  V30 18 1 20 4
M  V30 19 1 20 7
M  V30 20 1 20 17
M  V30 21 2 21 19
M  V30 22 1 22 4
M  V30 23 1 22 11
M  V30 24 1 23 16
M  V30 25 1 24 2
M  V30 26 1 25 4
M  V30 27 1 26 4
M  V30 28 1 27 7
M  V30 29 1 28 7
M  V30 30 1 29 8
M  V30 31 1 30 8
M  V30 32 1 9 31 CFG=3
M  V30 33 1 32 10
M  V30 34 1 33 10
M  V30 35 1 34 11
M  V30 36 1 35 11
M  V30 37 1 36 12
M  V30 38 1 37 12
M  V30 39 1 38 13
M  V30 40 1 39 13
M  V30 41 1 14 40 CFG=3
M  V30 42 1 16 41 CFG=3
M  V30 43 1 42 17
M  V30 44 1 43 18
M  V30 45 1 44 18
M  V30 46 1 45 20
M  V30 47 1 46 22
M  V30 48 1 47 22
M  V30 49 1 48 23
M  V30 50 1 49 23
M  V30 51 1 50 23
M  V30 END BOND
M  V30 END CTAB
M  END
>  <i_epik_Tot_Q>  (1) 
0

>  <i_epik_Tot_abs_Q>  (1) 
0

>  <i_i_glide_confnum>  (1) 
7

>  <i_i_glide_lignum>  (1) 
175

>  <i_i_glide_posenum>  (1) 
15

>  <i_i_glide_rotatable_bonds>  (1) 
8

>  <i_lp_mmshare_version>  (1) 
72125

>  <i_m_source_file_index>  (1) 
93

>  <i_f3d_flags>  (1) 
0

>  <num_sample>  (1) 
100

>  <b_lp_Chiralities_Consistent>  (1) 
1

>  <r_epik_Charging_Adjusted_Penalty>  (1) 
0

>  <r_epik_Ionization_Penalty>  (1) 
1.562769370877429e-07

>  <r_epik_Ionization_Penalty_Charging>  (1) 
0

>  <r_epik_Ionization_Penalty_Neutral>  (1) 
1.562769370877429e-07

>  <r_epik_State_Penalty>  (1) 
-0

>  <r_glide_ring_energy>  (1) 
0

>  <r_i_docking_score>  (1) 
-5.1118892316796449

>  <r_i_glide_ecoul>  (1) 
-5.3512497494445075

>  <r_i_glide_eff_state_penalty>  (1) 
-0

>  <r_i_glide_einternal>  (1) 
1.5636323246660631

>  <r_i_glide_emodel>  (1) 
-40.898028840461329

>  <r_i_glide_emodel_strain>  (1) 
0.43110726323841053

>  <r_i_glide_energy>  (1) 
-31.141511919450991

>  <r_i_glide_erotb>  (1) 
0.94841189780278856

>  <r_i_glide_esite>  (1) 
-0.11984831168713242

>  <r_i_glide_evdw>  (1) 
-25.790262170006486

>  <r_i_glide_gscore>  (1) 
-5.1118892316796449

>  <r_i_glide_gscore_strain>  (1) 
0

>  <r_i_glide_hbond>  (1) 
-0.15617315025477443

>  <r_i_glide_ligand_efficiency>  (1) 
-0.22225605355128891

>  <r_i_glide_ligand_efficiency_ln>  (1) 
-1.2361011682689833

>  <r_i_glide_ligand_efficiency_sa>  (1) 
-0.63206665176663179

>  <r_i_glide_lipo>  (1) 
-2.1322272453455127

>  <r_i_glide_metal>  (1) 
-0

>  <r_i_glide_rewards>  (1) 
-1.559851851278014

>  <r_lp_Energy>  (1) 
5.1782649999999997

>  <r_lp_tautomer_probability>  (1) 
1

>  <s_epik_Chemistry_Notes>  (1) 
This compound contains an acetal/aminal-like group ( X-CH(R)-Y where X, Y are N, S, or O) that may be acid/base labile, releasing an aldehyde.

>  <s_epik_cmdline>  (1) 
J2VwaWtfcHl0aG9uJywgJy1waHQnLCAnMS4wJywgJy1waCcsICc3LjQnLCAnLXRuJywgJzgnLCAnLW1hJywgJzUwMCcsICctaW1hZScsICc8aW5maWxlLm1hZT4nLCAnLW9tYWUnLCAnPG91dGZpbGUubWFlPic=

>  <s_epik_input>  (1) 
Q2xbQ0BASF0xW0NIMl1bQ0gyXU9bQ0BASF0oTzEpW0NIMl1DKD1PKVtOSF1bQ0BIXShbQ0gzXSlbQ0gyXUMoPU8pW05IXVtDSF0yW0NIMl1bQ0gyXVtDSDJdW0NIMl1bQ0gyXTI=

>  <s_glide_docking_method>  (1) 
confgen

>  <s_i_glide_gridfile>  (1) 
gpcr_drd2_6luq_protein_autoprepared_prepared

>  <s_lp_Force_Field>  (1) 
S-OPLS

>  <s_lp_Variant>  (1) 
DiffSBDD_92-1

>  <s_m_source_file>  (1) 
generated_generic_title2_ligand_DiffSBDD_2026-06-23_prepared.sdf

>  <GenAI_Model>  (1) 
DiffSBDD

>  <Protein>  (1) 
generic_title2

$$$$
DiffSBDD_78
     RDKit          3D

  0  0  0  0  0  0  0  0  0  0999 V3000
M  V30 BEGIN CTAB
M  V30 COUNTS 81 85 0 0 1
M  V30 BEGIN ATOM
M  V30 1 C 13.684169 6.426970 -17.642208 0 CFG=2
M  V30 2 C 13.563791 7.710919 -16.800704 0
M  V30 3 C 6.389118 4.347029 -12.462150 0 CFG=1
M  V30 4 C 7.942739 6.516327 -12.122819 0 CFG=2
M  V30 5 C 14.285646 6.705037 -19.022734 0
M  V30 6 N 8.975410 8.320703 -10.785027 0 CHG=1
M  V30 7 C 6.523762 6.753291 -12.707004 0 CFG=1
M  V30 8 C 7.180934 5.271081 -14.715865 0 CFG=1
M  V30 9 N 12.373695 5.810617 -17.951941 0 CFG=2 CHG=1
M  V30 10 C 11.864393 6.466646 -19.179414 0
M  V30 11 N 8.169701 5.529145 -15.827600 0 CFG=2 CHG=1
M  V30 12 C 8.134071 3.026122 -13.531343 0
M  V30 13 C 8.859931 7.749722 -12.139286 0
M  V30 14 C 9.484895 7.753820 -8.498079 0
M  V30 15 O 8.541165 5.382504 -12.786873 0
M  V30 16 C 7.439738 5.849966 -17.089319 0
M  V30 17 C 10.534093 7.272539 -7.499550 0 CFG=1
M  V30 18 C 4.975342 4.533999 -12.913766 0
M  V30 19 C 7.600984 4.477818 -13.405458 0 CFG=2
M  V30 20 F 10.765087 5.987227 -7.751730 0
M  V30 21 C 13.086104 7.026018 -19.918702 0
M  V30 22 C 9.322009 2.757535 -12.608427 0
M  V30 23 O 11.179242 8.551833 -9.985501 0
M  V30 24 C 6.595408 6.651534 -14.252922 0
M  V30 25 C 11.845533 8.045761 -7.705009 0 CFG=1
M  V30 26 C 10.249739 4.748986 -17.176223 0
M  V30 27 C 10.108353 7.670849 -9.908275 0 CFG=2
M  V30 28 C 11.405456 5.701374 -16.828746 0
M  V30 29 C 9.230328 4.506255 -16.041441 0
M  V30 30 C 10.023625 7.325779 -6.054853 0
M  V30 31 C 12.269800 8.146283 -9.180439 0
M  V30 32 C 5.683628 5.633470 -12.140544 0 CFG=1
M  V30 33 F 11.774801 9.266573 -7.173948 0
M  V30 34 H 14.308712 5.715113 -17.099741 0
M  V30 35 H 14.513720 8.244361 -16.786433 0
M  V30 36 H 12.816998 8.390307 -17.207608 0
M  V30 37 H 13.295410 7.495130 -15.765746 0
M  V30 38 H 6.550223 3.706292 -11.595028 0
M  V30 39 H 7.836705 6.202266 -11.081144 0
M  V30 40 H 14.780594 5.804657 -19.388167 0
M  V30 41 H 15.030740 7.501550 -19.018740 0
M  V30 42 H 9.121977 9.315635 -10.841660 0
M  V30 43 H 6.105430 7.705093 -12.378958 0
M  V30 44 H 6.405692 4.666105 -15.186151 0
M  V30 45 H 11.311262 5.757251 -19.797217 0
M  V30 46 H 11.188231 7.281719 -18.922115 0
M  V30 47 H 8.359333 2.707455 -14.534661 0
M  V30 48 H 7.349238 2.312584 -13.269285 0
M  V30 49 H 9.853854 7.508175 -12.515093 0
M  V30 50 H 8.443503 8.521335 -12.784973 0
M  V30 51 H 9.168929 8.775721 -8.279571 0
M  V30 52 H 8.619802 7.093969 -8.419472 0
M  V30 53 H 7.015748 4.948519 -17.537239 0
M  V30 54 H 6.617076 6.544709 -16.918870 0
M  V30 55 H 8.077359 6.329180 -17.831593 0
M  V30 56 H 4.202309 3.990315 -12.384856 0
M  V30 57 H 4.714546 4.743137 -13.945066 0
M  V30 58 H 13.201538 6.579336 -20.906058 0
M  V30 59 H 12.982513 8.103223 -20.058051 0
M  V30 60 H 9.692120 1.746744 -12.784187 0
M  V30 61 H 9.039445 2.847216 -11.564184 0
M  V30 62 H 10.142000 3.452984 -12.784584 0
M  V30 63 H 5.607755 6.808538 -14.684219 0
M  V30 64 H 7.208693 7.477242 -14.617218 0
M  V30 65 H 12.625776 7.519410 -7.185028 0
M  V30 66 H 10.698520 3.778697 -17.398180 0
M  V30 67 H 9.760980 5.034588 -18.103527 0
M  V30 68 H 10.348267 6.654533 -10.224257 0
M  V30 69 H 11.024887 6.682639 -16.551344 0
M  V30 70 H 11.936628 5.311972 -15.959166 0
M  V30 71 H 9.786452 4.390210 -15.113395 0
M  V30 72 H 8.736797 3.574980 -16.310631 0
M  V30 73 H 9.779832 8.343607 -5.748141 0
M  V30 74 H 9.121020 6.722885 -5.960317 0
M  V30 75 H 10.760462 6.928037 -5.356772 0
M  V30 76 H 12.628896 7.190414 -9.556381 0
M  V30 77 H 13.095780 8.846911 -9.292286 0
M  V30 78 H 5.387980 5.766914 -11.099978 0
M  V30 79 H 12.606081 4.867080 -18.231103 0
M  V30 80 H 8.660434 6.368235 -15.552282 0
M  V30 81 H 8.072549 8.169304 -10.296614 0
M  V30 END ATOM
M  V30 BEGIN BOND
M  V30 1 1 2 1
M  V30 2 1 5 1
M  V30 3 1 7 4
M  V30 4 1 9 1
M  V30 5 1 10 9
M  V30 6 1 11 8
M  V30 7 1 13 4
M  V30 8 1 13 6
M  V30 9 1 15 4
M  V30 10 1 16 11
M  V30 11 1 17 14
M  V30 12 1 18 3
M  V30 13 1 19 3
M  V30 14 1 19 8
M  V30 15 1 19 12 CFG=3
M  V30 16 1 19 15
M  V30 17 1 17 20 CFG=3
M  V30 18 1 21 5
M  V30 19 1 21 10
M  V30 20 1 22 12
M  V30 21 1 24 7
M  V30 22 1 24 8
M  V30 23 1 25 17
M  V30 24 1 27 6
M  V30 25 1 27 14
M  V30 26 1 27 23
M  V30 27 1 28 9
M  V30 28 1 28 26
M  V30 29 1 29 11
M  V30 30 1 29 26
M  V30 31 1 30 17
M  V30 32 1 31 23
M  V30 33 1 31 25
M  V30 34 1 32 3
M  V30 35 1 32 7
M  V30 36 1 32 18
M  V30 37 1 33 25
M  V30 38 1 1 34 CFG=1
M  V30 39 1 35 2
M  V30 40 1 36 2
M  V30 41 1 37 2
M  V30 42 1 3 38 CFG=1
M  V30 43 1 4 39 CFG=1
M  V30 44 1 40 5
M  V30 45 1 41 5
M  V30 46 1 42 6
M  V30 47 1 7 43 CFG=3
M  V30 48 1 8 44 CFG=3
M  V30 49 1 45 10
M  V30 50 1 46 10
M  V30 51 1 47 12
M  V30 52 1 48 12
M  V30 53 1 49 13
M  V30 54 1 50 13
M  V30 55 1 51 14
M  V30 56 1 52 14
M  V30 57 1 53 16
M  V30 58 1 54 16
M  V30 59 1 55 16
M  V30 60 1 56 18
M  V30 61 1 57 18
M  V30 62 1 58 21
M  V30 63 1 59 21
M  V30 64 1 60 22
M  V30 65 1 61 22
M  V30 66 1 62 22
M  V30 67 1 63 24
M  V30 68 1 64 24
M  V30 69 1 25 65 CFG=1
M  V30 70 1 66 26
M  V30 71 1 67 26
M  V30 72 1 27 68 CFG=3
M  V30 73 1 69 28
M  V30 74 1 70 28
M  V30 75 1 71 29
M  V30 76 1 72 29
M  V30 77 1 73 30
M  V30 78 1 74 30
M  V30 79 1 75 30
M  V30 80 1 76 31
M  V30 81 1 77 31
M  V30 82 1 32 78 CFG=1
M  V30 83 1 9 79 CFG=3
M  V30 84 1 11 80 CFG=1
M  V30 85 1 81 6
M  V30 END BOND
M  V30 END CTAB
M  END
>  <i_epik_Tot_Q>  (1) 
3

>  <i_epik_Tot_abs_Q>  (1) 
3

>  <i_i_glide_confnum>  (1) 
302

>  <i_i_glide_lignum>  (1) 
133

>  <i_i_glide_posenum>  (1) 
76

>  <i_i_glide_rotatable_bonds>  (1) 
9

>  <i_lp_mmshare_version>  (1) 
72125

>  <i_m_source_file_index>  (1) 
79

>  <i_f3d_flags>  (1) 
0

>  <num_sample>  (1) 
100

>  <b_lp_Chiralities_Consistent>  (1) 
1

>  <r_epik_Charging_Adjusted_Penalty>  (1) 
1.7942086838225126

>  <r_epik_Ionization_Penalty>  (1) 
0.94562311220168549

>  <r_epik_Ionization_Penalty_Charging>  (1) 
0.94562311220168382

>  <r_epik_Ionization_Penalty_Neutral>  (1) 
1.710257484888175e-15

>  <r_epik_State_Penalty>  (1) 
0.84858557162082893

>  <r_glide_ring_energy>  (1) 
0

>  <r_i_docking_score>  (1) 
-5.1089602477851477

>  <r_i_glide_ecoul>  (1) 
-10.927317098974171

>  <r_i_glide_eff_state_penalty>  (1) 
0.84858557162082893

>  <r_i_glide_einternal>  (1) 
14.137029395924216

>  <r_i_glide_emodel>  (1) 
-41.909212249895852

>  <r_i_glide_emodel_strain>  (1) 
2.5605032755934474

>  <r_i_glide_energy>  (1) 
-37.024030834384483

>  <r_i_glide_erotb>  (1) 
0.72404097212868179

>  <r_i_glide_esite>  (1) 
-0.17409896359609131

>  <r_i_glide_evdw>  (1) 
-26.096713735410312

>  <r_i_glide_gscore>  (1) 
-5.9575458194059765

>  <r_i_glide_gscore_strain>  (1) 
0

>  <r_i_glide_hbond>  (1) 
-0.16448972799906608

>  <r_i_glide_ligand_efficiency>  (1) 
-0.15481697720561052

>  <r_i_glide_ligand_efficiency_ln>  (1) 
-1.1362063063269761

>  <r_i_glide_ligand_efficiency_sa>  (1) 
-0.49658076925317718

>  <r_i_glide_lipo>  (1) 
-2.0346818190117593

>  <r_i_glide_metal>  (1) 
-0

>  <r_i_glide_rewards>  (1) 
-1.3643830293111003

>  <r_lp_Energy>  (1) 
78.433422999999991

>  <s_epik_Chemistry_Notes>  (1) 
This compound contains an acetal/aminal-like group ( X-CH(R)-Y where X, Y are N, S, or O) that may be acid/base labile, releasing an aldehyde.

>  <s_epik_cmdline>  (1) 
J2VwaWtfcHl0aG9uJywgJy1waHQnLCAnMS4wJywgJy1waCcsICc3LjQnLCAnLXRuJywgJzgnLCAnLW1hJywgJzUwMCcsICctaW1hZScsICc8aW5maWxlLm1hZT4nLCAnLW9tYWUnLCAnPG91dGZpbGUubWFlPic=

>  <s_epik_input>  (1) 
W0NIM11bQ0BASF0xW0NIMl1bQ0gyXVtDSDJdTjFbQ0gyXVtDSDJdW0NIMl1OKFtDSDNdKVtDQEBIXTJbQ0gyXVtDQEBIXShbQ0BASF0oW0NIMl0zKVtDQEBIXTNbQ0BAXTI0W0NIMl1bQ0gzXSlbQ0BASF0oTzQpW0NIMl1bTkhdW0NASF0oW0NIMl1bQ0BdNShGKVtDSDNdKU9bQ0gyXVtDQEhdNUY=

>  <s_glide_docking_method>  (1) 
confgen

>  <s_i_glide_gridfile>  (1) 
gpcr_drd2_6luq_protein_autoprepared_prepared

>  <s_lp_Force_Field>  (1) 
S-OPLS

>  <s_lp_Variant>  (1) 
DiffSBDD_78-5

>  <s_m_source_file>  (1) 
generated_generic_title2_ligand_DiffSBDD_2026-06-23_prepared.sdf

>  <GenAI_Model>  (1) 
DiffSBDD

>  <Protein>  (1) 
generic_title2

$$$$
DiffSBDD_78
     RDKit          3D

  0  0  0  0  0  0  0  0  0  0999 V3000
M  V30 BEGIN CTAB
M  V30 COUNTS 81 85 0 0 1
M  V30 BEGIN ATOM
M  V30 1 C 6.640711 4.174211 -21.020046 0 CFG=2
M  V30 2 C 7.990312 4.237043 -21.768019 0
M  V30 3 C 5.845261 3.311848 -12.861355 0 CFG=1
M  V30 4 C 7.678560 4.671963 -11.358452 0 CFG=2
M  V30 5 C 5.510386 4.811520 -21.831669 0
M  V30 6 N 8.575440 5.989741 -9.448605 0 CHG=1
M  V30 7 C 6.467022 5.478258 -11.877340 0 CFG=1
M  V30 8 C 7.224186 4.941316 -14.265630 0 CFG=1
M  V30 9 N 6.628316 4.946271 -19.754596 0 CFG=2 CHG=1
M  V30 10 C 6.297990 6.346517 -20.100987 0
M  V30 11 N 8.454553 5.333344 -15.045201 0 CFG=1 CHG=1
M  V30 12 C 7.613384 2.348487 -14.368340 0
M  V30 13 C 8.835965 5.514110 -10.822133 0
M  V30 14 C 9.537108 6.469319 -7.276480 0
M  V30 15 O 8.123641 3.753234 -12.385006 0
M  V30 16 C 9.728545 5.275689 -14.287897 0
M  V30 17 C 10.813548 6.889097 -6.531025 0 CFG=1
M  V30 18 C 4.575444 4.069513 -13.190429 0
M  V30 19 C 7.222701 3.564361 -13.494717 0 CFG=2
M  V30 20 F 11.775412 6.005217 -6.779112 0
M  V30 21 C 5.528528 6.289835 -21.429338 0
M  V30 22 C 7.728209 0.996679 -13.645045 0
M  V30 23 O 10.178168 7.752263 -9.193880 0
M  V30 24 C 6.812725 6.069795 -13.270497 0
M  V30 25 C 11.252668 8.270786 -7.049071 0 CFG=1
M  V30 26 C 7.499643 5.228418 -17.418233 0
M  V30 27 C 9.912432 6.456698 -8.758874 0 CFG=2
M  V30 28 C 7.794141 4.761892 -18.855480 0
M  V30 29 C 8.611684 4.811777 -16.438851 0
M  V30 30 C 10.634292 6.873708 -5.020711 0
M  V30 31 C 11.351548 8.296382 -8.589952 0
M  V30 32 C 5.375455 4.434779 -11.967513 0 CFG=1
M  V30 33 F 10.383097 9.190218 -6.639626 0
M  V30 34 H 6.409062 3.128277 -20.810704 0
M  V30 35 H 7.924044 3.714727 -22.723272 0
M  V30 36 H 8.293419 5.263448 -21.977903 0
M  V30 37 H 8.791352 3.757838 -21.204898 0
M  V30 38 H 5.775408 2.338327 -12.386681 0
M  V30 39 H 7.348163 4.038160 -10.533322 0
M  V30 40 H 4.558357 4.367206 -21.536642 0
M  V30 41 H 5.615306 4.663551 -22.907811 0
M  V30 42 H 7.890435 6.761224 -9.457993 0
M  V30 43 H 6.162126 6.262143 -11.183651 0
M  V30 44 H 6.429284 4.881425 -15.001471 0
M  V30 45 H 5.715050 6.817038 -19.308469 0
M  V30 46 H 7.211721 6.929044 -20.231763 0
M  V30 47 H 8.575412 2.522598 -14.816990 0
M  V30 48 H 6.908420 2.251060 -15.195022 0
M  V30 49 H 9.727836 4.886005 -10.811121 0
M  V30 50 H 9.055489 6.374999 -11.448260 0
M  V30 51 H 8.713398 7.165565 -7.101805 0
M  V30 52 H 9.214508 5.476807 -6.971013 0
M  V30 53 H 9.916487 4.301698 -13.860641 0
M  V30 54 H 10.582336 5.537038 -14.913064 0
M  V30 55 H 9.724472 5.990203 -13.471251 0
M  V30 56 H 3.616657 3.590220 -13.031831 0
M  V30 57 H 4.557031 4.804982 -13.985003 0
M  V30 58 H 4.517577 6.687749 -21.334082 0
M  V30 59 H 6.043852 6.885219 -22.184504 0
M  V30 60 H 8.145693 0.240409 -14.310825 0
M  V30 61 H 6.764566 0.617159 -13.306730 0
M  V30 62 H 8.391950 1.066018 -12.784570 0
M  V30 63 H 5.957430 6.622242 -13.662062 0
M  V30 64 H 7.596276 6.818437 -13.162552 0
M  V30 65 H 12.203091 8.568127 -6.612686 0
M  V30 66 H 6.559159 4.784872 -17.109951 0
M  V30 67 H 7.364940 6.310260 -17.393721 0
M  V30 68 H 10.716071 5.761234 -8.966663 0
M  V30 69 H 8.668384 5.279834 -19.252397 0
M  V30 70 H 8.040481 3.699308 -18.835248 0
M  V30 71 H 9.543553 5.211833 -16.841143 0
M  V30 72 H 8.737166 3.734382 -16.468456 0
M  V30 73 H 9.775435 7.483097 -4.785031 0
M  V30 74 H 10.445800 5.873095 -4.638342 0
M  V30 75 H 11.504888 7.274719 -4.501093 0
M  V30 76 H 12.220462 7.723049 -8.917359 0
M  V30 77 H 11.499622 9.316401 -8.946221 0
M  V30 78 H 4.975429 4.127158 -11.003283 0
M  V30 79 H 5.821797 4.592273 -19.259513 0
M  V30 80 H 8.321926 6.322604 -15.201740 0
M  V30 81 H 8.171104 5.235741 -8.914318 0
M  V30 END ATOM
M  V30 BEGIN BOND
M  V30 1 1 2 1
M  V30 2 1 5 1
M  V30 3 1 7 4
M  V30 4 1 9 1
M  V30 5 1 10 9
M  V30 6 1 11 8
M  V30 7 1 13 4
M  V30 8 1 13 6
M  V30 9 1 15 4
M  V30 10 1 16 11
M  V30 11 1 17 14
M  V30 12 1 18 3
M  V30 13 1 19 3
M  V30 14 1 19 8
M  V30 15 1 19 12 CFG=3
M  V30 16 1 19 15
M  V30 17 1 17 20 CFG=1
M  V30 18 1 21 5
M  V30 19 1 21 10
M  V30 20 1 22 12
M  V30 21 1 24 7
M  V30 22 1 24 8
M  V30 23 1 25 17
M  V30 24 1 27 6
M  V30 25 1 27 14
M  V30 26 1 27 23
M  V30 27 1 28 9
M  V30 28 1 28 26
M  V30 29 1 29 11
M  V30 30 1 29 26
M  V30 31 1 30 17
M  V30 32 1 31 23
M  V30 33 1 31 25
M  V30 34 1 32 3
M  V30 35 1 32 7
M  V30 36 1 32 18
M  V30 37 1 33 25
M  V30 38 1 1 34 CFG=1
M  V30 39 1 35 2
M  V30 40 1 36 2
M  V30 41 1 37 2
M  V30 42 1 3 38 CFG=1
M  V30 43 1 4 39 CFG=1
M  V30 44 1 40 5
M  V30 45 1 41 5
M  V30 46 1 42 6
M  V30 47 1 7 43 CFG=1
M  V30 48 1 8 44 CFG=3
M  V30 49 1 45 10
M  V30 50 1 46 10
M  V30 51 1 47 12
M  V30 52 1 48 12
M  V30 53 1 49 13
M  V30 54 1 50 13
M  V30 55 1 51 14
M  V30 56 1 52 14
M  V30 57 1 53 16
M  V30 58 1 54 16
M  V30 59 1 55 16
M  V30 60 1 56 18
M  V30 61 1 57 18
M  V30 62 1 58 21
M  V30 63 1 59 21
M  V30 64 1 60 22
M  V30 65 1 61 22
M  V30 66 1 62 22
M  V30 67 1 63 24
M  V30 68 1 64 24
M  V30 69 1 25 65 CFG=1
M  V30 70 1 66 26
M  V30 71 1 67 26
M  V30 72 1 27 68 CFG=1
M  V30 73 1 69 28
M  V30 74 1 70 28
M  V30 75 1 71 29
M  V30 76 1 72 29
M  V30 77 1 73 30
M  V30 78 1 74 30
M  V30 79 1 75 30
M  V30 80 1 76 31
M  V30 81 1 77 31
M  V30 82 1 32 78 CFG=1
M  V30 83 1 9 79 CFG=1
M  V30 84 1 11 80 CFG=3
M  V30 85 1 81 6
M  V30 END BOND
M  V30 END CTAB
M  END
>  <i_epik_Tot_Q>  (1) 
3

>  <i_epik_Tot_abs_Q>  (1) 
3

>  <i_i_glide_confnum>  (1) 
132

>  <i_i_glide_lignum>  (1) 
135

>  <i_i_glide_posenum>  (1) 
159

>  <i_i_glide_rotatable_bonds>  (1) 
9

>  <i_lp_mmshare_version>  (1) 
72125

>  <i_m_source_file_index>  (1) 
79

>  <i_f3d_flags>  (1) 
0

>  <num_sample>  (1) 
100

>  <b_lp_Chiralities_Consistent>  (1) 
1

>  <r_epik_Charging_Adjusted_Penalty>  (1) 
1.7942086838225126

>  <r_epik_Ionization_Penalty>  (1) 
0.94562311220168549

>  <r_epik_Ionization_Penalty_Charging>  (1) 
0.94562311220168382

>  <r_epik_Ionization_Penalty_Neutral>  (1) 
1.710257484888175e-15

>  <r_epik_State_Penalty>  (1) 
0.84858557162082893

>  <r_glide_ring_energy>  (1) 
0

>  <r_i_docking_score>  (1) 
-5.10679827726507

>  <r_i_glide_ecoul>  (1) 
-9.8132901097522183

>  <r_i_glide_eff_state_penalty>  (1) 
0.84858557162082893

>  <r_i_glide_einternal>  (1) 
3.4380658880455286

>  <r_i_glide_emodel>  (1) 
-50.760290981158171

>  <r_i_glide_emodel_strain>  (1) 
0

>  <r_i_glide_energy>  (1) 
-34.058972172602104

>  <r_i_glide_erotb>  (1) 
0.72404097212868179

>  <r_i_glide_esite>  (1) 
-0.14897265998465309

>  <r_i_glide_evdw>  (1) 
-24.245682062849887

>  <r_i_glide_gscore>  (1) 
-5.9553838488858988

>  <r_i_glide_gscore_strain>  (1) 
0

>  <r_i_glide_hbond>  (1) 
-0.1572162036373202

>  <r_i_glide_ligand_efficiency>  (1) 
-0.15475146294742637

>  <r_i_glide_ligand_efficiency_ln>  (1) 
-1.1357254952773952

>  <r_i_glide_ligand_efficiency_sa>  (1) 
-0.49637063002094722

>  <r_i_glide_lipo>  (1) 
-2.3428475451215429

>  <r_i_glide_metal>  (1) 
-0

>  <r_i_glide_rewards>  (1) 
-1.3461107926657379

>  <r_lp_Energy>  (1) 
79.635677999999999

>  <s_epik_Chemistry_Notes>  (1) 
This compound contains an acetal/aminal-like group ( X-CH(R)-Y where X, Y are N, S, or O) that may be acid/base labile, releasing an aldehyde.

>  <s_epik_cmdline>  (1) 
J2VwaWtfcHl0aG9uJywgJy1waHQnLCAnMS4wJywgJy1waCcsICc3LjQnLCAnLXRuJywgJzgnLCAnLW1hJywgJzUwMCcsICctaW1hZScsICc8aW5maWxlLm1hZT4nLCAnLW9tYWUnLCAnPG91dGZpbGUubWFlPic=

>  <s_epik_input>  (1) 
W0NIM11bQ0BASF0xW0NIMl1bQ0gyXVtDSDJdTjFbQ0gyXVtDSDJdW0NIMl1OKFtDSDNdKVtDQEBIXTJbQ0gyXVtDQEBIXShbQ0BASF0oW0NIMl0zKVtDQEBIXTNbQ0BAXTI0W0NIMl1bQ0gzXSlbQ0BASF0oTzQpW0NIMl1bTkhdW0NASF0oW0NIMl1bQ0BdNShGKVtDSDNdKU9bQ0gyXVtDQEhdNUY=

>  <s_glide_docking_method>  (1) 
confgen

>  <s_i_glide_gridfile>  (1) 
gpcr_drd2_6luq_protein_autoprepared_prepared

>  <s_lp_Force_Field>  (1) 
S-OPLS

>  <s_lp_Variant>  (1) 
DiffSBDD_78-7

>  <s_m_source_file>  (1) 
generated_generic_title2_ligand_DiffSBDD_2026-06-23_prepared.sdf

>  <GenAI_Model>  (1) 
DiffSBDD

>  <Protein>  (1) 
generic_title2

$$$$
DiffSBDD_93
     RDKit          3D

  0  0  0  0  0  0  0  0  0  0999 V3000
M  V30 BEGIN CTAB
M  V30 COUNTS 69 73 0 0 1
M  V30 BEGIN ATOM
M  V30 1 C 8.158802 5.410192 -12.381021 0 CFG=1
M  V30 2 C 7.365731 7.560018 -20.475527 0
M  V30 3 C 10.089993 7.914159 -8.756915 0
M  V30 4 O 5.789976 11.067727 -23.205029 0
M  V30 5 C 7.379819 3.589320 -14.083258 0
M  V30 6 C 7.741079 2.983926 -15.463859 0
M  V30 7 C 5.113372 9.190094 -21.024241 0
M  V30 8 C 7.068535 7.824109 -12.969493 0
M  V30 9 N 8.281887 4.705718 -13.695809 0 CFG=1 CHG=1
M  V30 10 C 5.040704 8.228867 -19.984955 0
M  V30 11 C 7.374075 8.529606 -21.493630 0
M  V30 12 C 8.942826 5.357467 -9.032908 0
M  V30 13 C 9.467698 5.268978 -11.546686 0 CFG=1
M  V30 14 C 6.574930 10.220162 -22.781401 0
M  V30 15 C 10.057008 7.294406 -10.022109 0
M  V30 16 C 5.618856 7.458039 -12.595284 0
M  V30 17 O 10.575410 5.590220 -12.385032 0
M  V30 18 C 8.074182 6.718673 -13.179100 0 CFG=2
M  V30 19 C 6.176687 7.410574 -19.691692 0
M  V30 20 C 6.311486 9.298516 -21.737148 0
M  V30 21 C 9.552310 7.262218 -7.636634 0
M  V30 22 N 7.837682 9.986151 -23.182164 0
M  V30 23 C 8.571216 8.845151 -22.426253 0
M  V30 24 C 7.372727 5.921174 -18.138269 0
M  V30 25 N 6.108619 6.485490 -18.627284 0
M  V30 26 C 8.159705 5.935696 -14.488317 0 CFG=2
M  V30 27 C 7.161059 5.161864 -16.799191 0 CFG=2
M  V30 28 C 9.484970 5.996459 -10.167924 0
M  V30 29 C 7.031008 6.053606 -15.540715 0
M  V30 30 O 10.575344 7.947704 -11.090379 0
M  V30 31 C 6.961654 4.904539 -11.551939 0
M  V30 32 C 8.119176 3.964272 -16.606255 0
M  V30 33 C 8.975406 5.990227 -7.774408 0
M  V30 34 H 8.240755 6.957020 -20.287571 0
M  V30 35 H 10.525607 8.895303 -8.648219 0
M  V30 36 H 6.338265 3.909176 -14.087476 0
M  V30 37 H 7.447465 2.801821 -13.331752 0
M  V30 38 H 8.564232 2.279956 -15.342333 0
M  V30 39 H 6.898142 2.374253 -15.791431 0
M  V30 40 H 4.271338 9.828225 -21.250467 0
M  V30 41 H 7.094464 8.365233 -13.917773 0
M  V30 42 H 7.441957 8.517726 -12.213793 0
M  V30 43 H 4.135202 8.127377 -19.405503 0
M  V30 44 H 8.497351 4.390227 -9.127095 0
M  V30 45 H 9.607964 4.213395 -11.309997 0
M  V30 46 H 4.957882 8.321591 -12.651115 0
M  V30 47 H 5.543335 7.123550 -11.563176 0
M  V30 48 H 5.200227 6.692332 -13.242658 0
M  V30 49 H 11.090919 4.818528 -12.603880 0
M  V30 50 H 9.020539 7.236060 -13.096639 0
M  V30 51 H 9.573426 7.742627 -6.669995 0
M  V30 52 H 8.298825 10.523794 -23.912987 0
M  V30 53 H 9.447055 9.190219 -21.877034 0
M  V30 54 H 8.819589 8.008657 -23.079689 0
M  V30 55 H 7.733963 5.224739 -18.896101 0
M  V30 56 H 8.134874 6.690592 -18.023988 0
M  V30 57 H 5.314911 6.508707 -18.003173 0
M  V30 58 H 9.137126 5.990225 -14.961349 0
M  V30 59 H 6.175447 4.761465 -16.932227 0
M  V30 60 H 6.061832 5.865964 -15.082209 0
M  V30 61 H 6.962353 7.090713 -15.868311 0
M  V30 62 H 10.932038 8.789288 -10.856448 0
M  V30 63 H 6.790838 5.528824 -10.674526 0
M  V30 64 H 7.129483 3.896519 -11.183991 0
M  V30 65 H 6.026515 4.881790 -12.105898 0
M  V30 66 H 9.140932 4.320875 -16.473302 0
M  V30 67 H 8.150533 3.389325 -17.532701 0
M  V30 68 H 8.551327 5.500699 -6.913586 0
M  V30 69 H 9.241312 4.395461 -13.762570 0
M  V30 END ATOM
M  V30 BEGIN BOND
M  V30 1 1 6 5
M  V30 2 1 9 1
M  V30 3 1 9 5
M  V30 4 2 10 7
M  V30 5 1 11 2
M  V30 6 1 13 1
M  V30 7 2 14 4
M  V30 8 2 15 3
M  V30 9 1 16 8
M  V30 10 1 17 13
M  V30 11 1 18 1
M  V30 12 1 18 8
M  V30 13 2 19 2
M  V30 14 1 19 10
M  V30 15 1 20 7
M  V30 16 2 20 11
M  V30 17 1 20 14
M  V30 18 1 21 3
M  V30 19 1 22 14
M  V30 20 1 23 11
M  V30 21 1 23 22
M  V30 22 1 25 19
M  V30 23 1 25 24
M  V30 24 1 26 9
M  V30 25 1 26 18
M  V30 26 1 27 24
M  V30 27 2 28 12
M  V30 28 1 28 13
M  V30 29 1 28 15
M  V30 30 1 29 26
M  V30 31 1 29 27
M  V30 32 1 30 15
M  V30 33 1 1 31 CFG=1
M  V30 34 1 32 6
M  V30 35 1 32 27
M  V30 36 1 33 12
M  V30 37 2 33 21
M  V30 38 1 34 2
M  V30 39 1 35 3
M  V30 40 1 36 5
M  V30 41 1 37 5
M  V30 42 1 38 6
M  V30 43 1 39 6
M  V30 44 1 40 7
M  V30 45 1 41 8
M  V30 46 1 42 8
M  V30 47 1 43 10
M  V30 48 1 44 12
M  V30 49 1 13 45 CFG=1
M  V30 50 1 46 16
M  V30 51 1 47 16
M  V30 52 1 48 16
M  V30 53 1 49 17
M  V30 54 1 18 50 CFG=1
M  V30 55 1 51 21
M  V30 56 1 52 22
M  V30 57 1 53 23
M  V30 58 1 54 23
M  V30 59 1 55 24
M  V30 60 1 56 24
M  V30 61 1 57 25
M  V30 62 1 26 58 CFG=3
M  V30 63 1 27 59 CFG=3
M  V30 64 1 60 29
M  V30 65 1 61 29
M  V30 66 1 62 30
M  V30 67 1 63 31
M  V30 68 1 64 31
M  V30 69 1 65 31
M  V30 70 1 66 32
M  V30 71 1 67 32
M  V30 72 1 68 33
M  V30 73 1 9 69 CFG=1
M  V30 END BOND
M  V30 END CTAB
M  END
>  <i_epik_Tot_Q>  (1) 
1

>  <i_epik_Tot_abs_Q>  (1) 
1

>  <i_i_glide_confnum>  (1) 
142

>  <i_i_glide_lignum>  (1) 
176

>  <i_i_glide_posenum>  (1) 
122

>  <i_i_glide_rotatable_bonds>  (1) 
8

>  <i_lp_mmshare_version>  (1) 
72125

>  <i_m_source_file_index>  (1) 
94

>  <i_f3d_flags>  (1) 
0

>  <num_sample>  (1) 
100

>  <b_lp_Chiralities_Consistent>  (1) 
1

>  <r_epik_Charging_Adjusted_Penalty>  (1) 
0.009895405337619817

>  <r_epik_Ionization_Penalty>  (1) 
0.010018489252536679

>  <r_epik_Ionization_Penalty_Charging>  (1) 
0.00060073207358730301

>  <r_epik_Ionization_Penalty_Neutral>  (1) 
0.0094177571789493767

>  <r_epik_State_Penalty>  (1) 
0.0092946732640325144

>  <r_glide_ring_energy>  (1) 
0

>  <r_i_docking_score>  (1) 
-5.1027270465337571

>  <r_i_glide_ecoul>  (1) 
-9.2284816265536627

>  <r_i_glide_eff_state_penalty>  (1) 
0.0092946732640325144

>  <r_i_glide_einternal>  (1) 
3.416895862326955

>  <r_i_glide_emodel>  (1) 
-27.8172239090473

>  <r_i_glide_emodel_strain>  (1) 
2.8441757822614022

>  <r_i_glide_energy>  (1) 
-31.03864532619469

>  <r_i_glide_erotb>  (1) 
0.49373930985115227

>  <r_i_glide_esite>  (1) 
-0.10148045253630214

>  <r_i_glide_evdw>  (1) 
-21.810163699641027

>  <r_i_glide_gscore>  (1) 
-5.1120217197977897

>  <r_i_glide_gscore_strain>  (1) 
0

>  <r_i_glide_hbond>  (1) 
-0.45419933817682007

>  <r_i_glide_ligand_efficiency>  (1) 
-0.15462809231920477

>  <r_i_glide_ligand_efficiency_ln>  (1) 
-1.1348200746424557

>  <r_i_glide_ligand_efficiency_sa>  (1) 
-0.49597491449561326

>  <r_i_glide_lipo>  (1) 
-1.6012793321152434

>  <r_i_glide_metal>  (1) 
-0

>  <r_i_glide_rewards>  (1) 
-0.97402147785547544

>  <r_lp_Energy>  (1) 
50.168202999999998

>  <r_lp_tautomer_probability>  (1) 
0.99999999999736477

>  <s_epik_cmdline>  (1) 
J2VwaWtfcHl0aG9uJywgJy1waHQnLCAnMS4wJywgJy1waCcsICc3LjQnLCAnLXRuJywgJzgnLCAnLW1hJywgJzUwMCcsICctaW1hZScsICc8aW5maWxlLm1hZT4nLCAnLW9tYWUnLCAnPG91dGZpbGUubWFlPic=

>  <s_epik_input>  (1) 
W09IXWMxW2NIXVtjSF1bY0hdW2NIXWMxW0NASF0oW09IXSlbQ0BAXTIoW0NIM10pW0NASF0oW0NIMl1bQ0gzXSlbQ0BASF0oTjIzKVtDSDJdW0NASF0oW0NIMl1bQ0gyXVtDSDJdMylbQ0gyXVtOSF1jKFtjSF00KVtjSF1bY0hdYyhjNDUpQyg9TylbTkhdW0NIMl01

>  <s_glide_docking_method>  (1) 
confgen

>  <s_i_glide_gridfile>  (1) 
gpcr_drd2_6luq_protein_autoprepared_prepared

>  <s_lp_Force_Field>  (1) 
S-OPLS

>  <s_lp_Variant>  (1) 
DiffSBDD_93-1

>  <s_m_source_file>  (1) 
generated_generic_title2_ligand_DiffSBDD_2026-06-23_prepared.sdf

>  <GenAI_Model>  (1) 
DiffSBDD

>  <Protein>  (1) 
generic_title2

$$$$
DiffSBDD_86
     RDKit          3D

  0  0  0  0  0  0  0  0  0  0999 V3000
M  V30 BEGIN CTAB
M  V30 COUNTS 114 117 0 0 1
M  V30 BEGIN ATOM
M  V30 1 C 13.422162 4.625773 -16.298899 0
M  V30 2 C 14.511024 4.807364 -17.350101 0 CFG=1
M  V30 3 C 7.854533 4.833413 -8.576375 0
M  V30 4 C 4.238117 8.335063 -19.585097 0
M  V30 5 C 9.228384 2.824072 -19.915337 0 CFG=2
M  V30 6 C 8.278499 3.829382 -13.200149 0
M  V30 7 O 9.819195 0.859403 -18.606958 0
M  V30 8 C 7.723891 1.947975 -18.047179 0 CFG=2
M  V30 9 O 8.703977 -1.610198 -17.193642 0
M  V30 10 C 8.452027 0.600988 -18.217875 0 CFG=2
M  V30 11 C 9.208977 3.517120 -21.292917 0
M  V30 12 O 15.632082 5.434960 -16.758070 0
M  V30 13 N 8.041795 5.956778 -10.785073 0
M  V30 14 C 11.885492 5.454360 -19.943211 0
M  V30 15 C 12.001360 2.934295 -17.721490 0 CFG=1
M  V30 16 C 7.146525 4.463352 -15.227282 0 CFG=2
M  V30 17 O 13.757126 0.794177 -18.068240 0
M  V30 18 C 4.131538 6.519082 -17.713493 0
M  V30 19 C 10.042628 1.480202 -19.895291 0 CFG=1
M  V30 20 C 9.487855 0.508097 -21.001367 0
M  V30 21 C 12.150447 2.918103 -19.260600 0 CFG=2
M  V30 22 O 7.923189 8.518092 -11.984958 0
M  V30 23 O 7.600234 2.824056 -12.997838 0
M  V30 24 N 9.539871 6.772740 -12.379339 0 CHG=1
M  V30 25 C 11.570283 1.791394 -20.093350 0
M  V30 26 C 7.787513 2.683108 -19.396463 0
M  V30 27 C 10.052761 6.263939 -8.560479 0
M  V30 28 O 8.219284 4.598607 -14.303162 0
M  V30 29 P 13.569520 2.256929 -18.280775 0 CFG=1
M  V30 30 C 4.435791 7.800282 -16.979422 0 CFG=2
M  V30 31 C 14.947621 3.465037 -17.940327 0
M  V30 32 C 9.795447 -0.995347 -20.830146 0
M  V30 33 C 4.885681 7.609969 -18.424500 0 CFG=2
M  V30 34 F 7.088065 7.806673 -12.914923 0
M  V30 35 C 5.444715 7.989933 -15.849168 0
M  V30 36 C 12.341954 1.113261 -20.972194 0
M  V30 37 C 12.618755 4.111990 -20.128816 0
M  V30 38 C 8.942275 5.737606 -11.766224 0
M  V30 39 C 12.053825 4.183288 -16.840586 0
M  V30 40 C 7.649157 4.156720 -16.658288 0 CFG=2
M  V30 41 C 9.290939 4.335640 -12.182205 0
M  V30 42 C 7.368984 4.897920 -10.034642 0
M  V30 43 C 8.370325 -0.262400 -16.941029 0
M  V30 44 C 8.237076 2.745135 -16.818562 0
M  V30 45 O 8.621288 5.090877 -17.086999 0
M  V30 46 C 6.574810 6.959808 -15.756717 0
M  V30 47 C 6.166154 5.644687 -15.077900 0
M  V30 48 C 9.365255 4.914146 -8.302396 0
M  V30 49 C 9.292710 8.179142 -12.029898 0
M  V30 50 H 13.286702 5.556184 -15.744531 0
M  V30 51 H 13.775578 3.888602 -15.584338 0
M  V30 52 H 14.164065 5.469424 -18.138978 0
M  V30 53 H 7.375451 5.590369 -7.981100 0
M  V30 54 H 7.468666 3.913498 -8.139942 0
M  V30 55 H 3.218447 8.629399 -19.337667 0
M  V30 56 H 4.812899 9.228318 -19.827037 0
M  V30 57 H 4.213830 7.690705 -20.463244 0
M  V30 58 H 9.692695 3.511164 -19.212946 0
M  V30 59 H 6.669405 1.738402 -17.857553 0
M  V30 60 H 8.418222 -2.141524 -16.457149 0
M  V30 61 H 7.921194 0.044934 -18.988480 0
M  V30 62 H 8.601508 2.967414 -22.011928 0
M  V30 63 H 8.785173 4.519208 -21.216617 0
M  V30 64 H 10.204750 3.617725 -21.717325 0
M  V30 65 H 15.774441 5.062450 -15.900630 0
M  V30 66 H 7.806973 6.917654 -10.519633 0
M  V30 67 H 12.059375 6.097522 -20.807253 0
M  V30 68 H 10.808097 5.334800 -19.848785 0
M  V30 69 H 12.239603 6.015951 -19.083059 0
M  V30 70 H 11.390274 2.156466 -17.277265 0
M  V30 71 H 6.551359 3.593188 -14.950525 0
M  V30 72 H 4.691980 5.606789 -17.534221 0
M  V30 73 H 3.087457 6.390145 -17.984739 0
M  V30 74 H 8.406104 0.588878 -21.076651 0
M  V30 75 H 9.829141 0.835214 -21.983751 0
M  V30 76 H 7.321201 3.665563 -19.337678 0
M  V30 77 H 7.182298 2.138035 -20.120304 0
M  V30 78 H 10.981775 6.324757 -7.994331 0
M  V30 79 H 10.312266 6.400225 -9.607204 0
M  V30 80 H 9.424577 7.098635 -8.245108 0
M  V30 81 H 3.538165 8.390220 -16.808684 0
M  V30 82 H 15.543066 3.611531 -18.841310 0
M  V30 83 H 15.598281 2.958014 -17.227457 0
M  V30 84 H 9.388301 -1.566203 -21.664881 0
M  V30 85 H 10.858531 -1.211672 -20.785065 0
M  V30 86 H 9.354406 -1.402838 -19.923124 0
M  V30 87 H 5.938846 7.401506 -18.599887 0
M  V30 88 H 4.920806 8.034940 -14.895920 0
M  V30 89 H 5.888291 8.975399 -15.987030 0
M  V30 90 H 13.387882 1.355303 -21.088208 0
M  V30 91 H 11.949280 0.322349 -21.580475 0
M  V30 92 H 13.688912 4.274779 -20.043697 0
M  V30 93 H 12.495899 3.836530 -21.175832 0
M  V30 94 H 11.560714 5.002122 -17.353289 0
M  V30 95 H 11.408968 3.993342 -15.985429 0
M  V30 96 H 6.784389 4.257476 -17.311946 0
M  V30 97 H 9.357780 3.670458 -11.321421 0
M  V30 98 H 10.271432 4.332805 -12.642800 0
M  V30 99 H 6.299852 5.109193 -10.041881 0
M  V30 100 H 7.470527 3.948392 -10.528406 0
M  V30 101 H 7.343672 -0.262171 -16.573269 0
M  V30 102 H 8.975434 0.136023 -16.134598 0
M  V30 103 H 7.985257 2.176822 -15.923890 0
M  V30 104 H 9.323177 2.789403 -16.817199 0
M  V30 105 H 9.326080 5.093026 -16.455159 0
M  V30 106 H 7.394082 7.388460 -15.185067 0
M  V30 107 H 6.955601 6.793105 -16.756730 0
M  V30 108 H 5.207183 5.339612 -15.466895 0
M  V30 109 H 5.977998 5.820963 -14.018992 0
M  V30 110 H 9.442777 4.790292 -7.228738 0
M  V30 111 H 9.905020 4.095715 -8.779680 0
M  V30 112 H 9.752709 8.405019 -11.069164 0
M  V30 113 H 9.775109 8.790057 -12.784584 0
M  V30 114 H 10.204780 6.586984 -13.117184 0
M  V30 END ATOM
M  V30 BEGIN BOND
M  V30 1 1 2 1
M  V30 2 1 10 7
M  V30 3 1 10 8
M  V30 4 1 11 5
M  V30 5 1 12 2
M  V30 6 1 19 5
M  V30 7 1 19 7
M  V30 8 1 19 20 CFG=3
M  V30 9 1 21 15
M  V30 10 2 23 6
M  V30 11 1 25 19
M  V30 12 1 25 21
M  V30 13 1 26 5
M  V30 14 1 26 8
M  V30 15 1 28 6
M  V30 16 1 28 16
M  V30 17 1 29 15
M  V30 18 2 29 17
M  V30 19 1 29 21
M  V30 20 1 30 18
M  V30 21 1 31 2
M  V30 22 1 29 31 CFG=1
M  V30 23 1 32 20
M  V30 24 1 33 4
M  V30 25 1 33 18
M  V30 26 1 33 30
M  V30 27 1 34 22
M  V30 28 1 35 30
M  V30 29 2 36 25
M  V30 30 1 37 14
M  V30 31 1 21 37 CFG=3
M  V30 32 1 38 13
M  V30 33 2 38 24
M  V30 34 1 39 1
M  V30 35 1 39 15
M  V30 36 1 40 16
M  V30 37 1 41 6
M  V30 38 1 41 38
M  V30 39 1 42 3
M  V30 40 1 42 13
M  V30 41 1 43 9
M  V30 42 1 43 10
M  V30 43 1 44 8
M  V30 44 1 44 40
M  V30 45 1 45 40
M  V30 46 1 46 35
M  V30 47 1 47 16
M  V30 48 1 47 46
M  V30 49 1 48 3
M  V30 50 1 48 27
M  V30 51 1 49 22
M  V30 52 1 49 24
M  V30 53 1 50 1
M  V30 54 1 51 1
M  V30 55 1 2 52 CFG=3
M  V30 56 1 53 3
M  V30 57 1 54 3
M  V30 58 1 55 4
M  V30 59 1 56 4
M  V30 60 1 57 4
M  V30 61 1 5 58 CFG=1
M  V30 62 1 8 59 CFG=1
M  V30 63 1 60 9
M  V30 64 1 10 61 CFG=3
M  V30 65 1 62 11
M  V30 66 1 63 11
M  V30 67 1 64 11
M  V30 68 1 65 12
M  V30 69 1 66 13
M  V30 70 1 67 14
M  V30 71 1 68 14
M  V30 72 1 69 14
M  V30 73 1 15 70 CFG=3
M  V30 74 1 16 71 CFG=1
M  V30 75 1 72 18
M  V30 76 1 73 18
M  V30 77 1 74 20
M  V30 78 1 75 20
M  V30 79 1 76 26
M  V30 80 1 77 26
M  V30 81 1 78 27
M  V30 82 1 79 27
M  V30 83 1 80 27
M  V30 84 1 30 81 CFG=3
M  V30 85 1 82 31
M  V30 86 1 83 31
M  V30 87 1 84 32
M  V30 88 1 85 32
M  V30 89 1 86 32
M  V30 90 1 33 87 CFG=1
M  V30 91 1 88 35
M  V30 92 1 89 35
M  V30 93 1 90 36
M  V30 94 1 91 36
M  V30 95 1 92 37
M  V30 96 1 93 37
M  V30 97 1 94 39
M  V30 98 1 95 39
M  V30 99 1 40 96 CFG=3
M  V30 100 1 97 41
M  V30 101 1 98 41
M  V30 102 1 99 42
M  V30 103 1 100 42
M  V30 104 1 101 43
M  V30 105 1 102 43
M  V30 106 1 103 44
M  V30 107 1 104 44
M  V30 108 1 105 45
M  V30 109 1 106 46
M  V30 110 1 107 46
M  V30 111 1 108 47
M  V30 112 1 109 47
M  V30 113 1 110 48
M  V30 114 1 111 48
M  V30 115 1 112 49
M  V30 116 1 113 49
M  V30 117 1 114 24
M  V30 END BOND
M  V30 END CTAB
M  END
>  <i_epik_Tot_Q>  (1) 
1

>  <i_epik_Tot_abs_Q>  (1) 
1

>  <i_i_glide_confnum>  (1) 
5493

>  <i_i_glide_lignum>  (1) 
153

>  <i_i_glide_posenum>  (1) 
231

>  <i_i_glide_rotatable_bonds>  (1) 
25

>  <i_lp_mmshare_version>  (1) 
72125

>  <i_m_source_file_index>  (1) 
87

>  <i_f3d_flags>  (1) 
0

>  <num_sample>  (1) 
100

>  <b_lp_Chiralities_Consistent>  (1) 
1

>  <r_epik_Charging_Adjusted_Penalty>  (1) 
0.16001273794586685

>  <r_epik_Ionization_Penalty>  (1) 
0.080843455150849161

>  <r_epik_Ionization_Penalty_Charging>  (1) 
0.080842825825004877

>  <r_epik_Ionization_Penalty_Neutral>  (1) 
6.2932584428919515e-07

>  <r_epik_State_Penalty>  (1) 
0.079169912120861954

>  <r_glide_ring_energy>  (1) 
0

>  <r_i_docking_score>  (1) 
-5.0824405954353553

>  <r_i_glide_ecoul>  (1) 
-9.239192995281531

>  <r_i_glide_eff_state_penalty>  (1) 
0.079169912120861954

>  <r_i_glide_einternal>  (1) 
37.454107532074232

>  <r_i_glide_emodel>  (1) 
-31.869847507262676

>  <r_i_glide_emodel_strain>  (1) 
6.8635381461869116

>  <r_i_glide_energy>  (1) 
-44.142542600501187

>  <r_i_glide_erotb>  (1) 
0.57386026422142977

>  <r_i_glide_esite>  (1) 
-0.16242854863893541

>  <r_i_glide_evdw>  (1) 
-34.90334960521966

>  <r_i_glide_gscore>  (1) 
-5.1616105075562171

>  <r_i_glide_gscore_strain>  (1) 
0.7158845365467279

>  <r_i_glide_hbond>  (1) 
-0.49468816725530906

>  <r_i_glide_ligand_efficiency>  (1) 
-0.10372327745786439

>  <r_i_glide_ligand_efficiency_ln>  (1) 
-1.0389671504078659

>  <r_i_glide_ligand_efficiency_sa>  (1) 
-0.37955518146386019

>  <r_i_glide_lipo>  (1) 
-2.0877507680064777

>  <r_i_glide_metal>  (1) 
-0

>  <r_i_glide_rewards>  (1) 
-0.57544139487043922

>  <r_lp_Energy>  (1) 
50.891874999999999

>  <s_epik_Chemistry_Notes>  (1) 
This compound has an ester and may undergo hydrolysis at high or low pH. This compound has an imine and may undergo hydrolysis. This compound contains an acetal/aminal-like group ( X-CH(R)-Y where X, Y are N, S, or O) that may be acid/base labile, releasing an aldehyde.

>  <s_epik_cmdline>  (1) 
J2VwaWtfcHl0aG9uJywgJy1waHQnLCAnMS4wJywgJy1waCcsICc3LjQnLCAnLXRuJywgJzgnLCAnLW1hJywgJzUwMCcsICctaW1hZScsICc8aW5maWxlLm1hZT4nLCAnLW9tYWUnLCAnPG91dGZpbGUubWFlPic=

>  <s_epik_input>  (1) 
W09IXVtDQEBIXShbQ0gyXTEpW0NIMl1bQ0gyXVtDQEhdKFAxMj1PKVtDQEBdMihbQ0gyXVtDSDNdKUMoPVtDSDJdKVtDQF0zKFtDSDJdW0NIM10pW0NAQEhdKFtDSDNdKVtDSDJdW0NAQEhdKFtDQEBIXShPMylbQ0gyXVtPSF0pW0NIMl1bQ0BIXShbT0hdKVtDQEhdKFtDSDJdW0NIMl1bQ0gyXVtDQEBIXTRbQ0gyXVtDQEhdNFtDSDNdKU9DKD1PKVtDSDJdQyg9TlxbQ0gyXU9GKVxbTkhdW0NIMl1bQ0gyXVtDSDJdW0NIM10=

>  <s_glide_docking_method>  (1) 
confgen

>  <s_i_glide_gridfile>  (1) 
gpcr_drd2_6luq_protein_autoprepared_prepared

>  <s_lp_Force_Field>  (1) 
S-OPLS

>  <s_lp_Variant>  (1) 
DiffSBDD_86-1

>  <s_m_source_file>  (1) 
generated_generic_title2_ligand_DiffSBDD_2026-06-23_prepared.sdf

>  <GenAI_Model>  (1) 
DiffSBDD

>  <Protein>  (1) 
generic_title2

$$$$
DiffSBDD_94
     RDKit          3D

  0  0  0  0  0  0  0  0  0  0999 V3000
M  V30 BEGIN CTAB
M  V30 COUNTS 65 69 0 0 1
M  V30 BEGIN ATOM
M  V30 1 C 7.769012 4.028885 -14.885556 0
M  V30 2 C 9.004351 6.781419 -11.202652 0
M  V30 3 O 12.915935 9.590228 -5.587238 0
M  V30 4 C 8.295065 4.324930 -13.474927 0
M  V30 5 C 11.881928 8.953711 -6.310444 0 CFG=1
M  V30 6 N 6.762124 8.258410 -20.889975 0
M  V30 7 C 5.521477 8.566730 -20.431311 0
M  V30 8 C 7.433731 5.343571 -15.582083 0 CFG=2
M  V30 9 C 6.649119 6.215220 -19.757932 0
M  V30 10 C 11.147346 7.796104 -5.663235 0 CFG=1
M  V30 11 Cl 5.850641 7.548585 -15.571806 0
M  V30 12 C 10.598924 9.199720 -5.585056 0
M  V30 13 C 7.368210 4.911910 -19.410267 0 CFG=2
M  V30 14 C 9.256619 4.752535 -10.835442 0
M  V30 15 C 8.063877 5.585705 -11.345254 0
M  V30 16 C 6.316258 6.013335 -14.773750 0 CFG=2
M  V30 17 C 10.617001 6.869514 -8.047766 0 CFG=1
M  V30 18 C 6.494747 3.660047 -19.624827 0
M  V30 19 C 4.780704 7.706566 -19.609663 0
M  V30 20 O 6.150828 7.157169 -12.669650 0
M  V30 21 N 7.330607 7.084417 -20.547325 0
M  V30 22 N 9.775409 5.986724 -10.244442 0
M  V30 23 C 10.420895 6.755420 -6.506435 0
M  V30 24 N 7.613756 5.421406 -12.743864 0
M  V30 25 F 11.642113 7.296240 -4.469855 0
M  V30 26 C 9.468226 6.168609 -8.819612 0
M  V30 27 C 5.359707 6.486311 -19.262899 0
M  V30 28 C 11.969731 9.095257 -7.810120 0
M  V30 29 O 10.283405 8.790225 -9.478900 0
M  V30 30 C 6.688409 6.248287 -13.298866 0
M  V30 31 C 8.010906 4.968632 -18.007349 0
M  V30 32 C 10.895502 8.302260 -8.538133 0
M  V30 33 N 6.975415 5.138020 -16.968242 0 CHG=1
M  V30 34 H 6.883030 3.393956 -14.823929 0
M  V30 35 H 8.516208 3.462860 -15.443213 0
M  V30 36 H 8.575405 7.687352 -10.785032 0
M  V30 37 H 9.615122 6.974055 -12.085524 0
M  V30 38 H 12.820733 10.525101 -5.683949 0
M  V30 39 H 9.344347 4.604273 -13.585892 0
M  V30 40 H 8.265865 3.403159 -12.890836 0
M  V30 41 H 5.119154 9.523621 -20.729107 0
M  V30 42 H 8.312668 5.990361 -15.593305 0
M  V30 43 H 10.625827 9.717737 -4.627729 0
M  V30 44 H 9.775409 9.440028 -6.234371 0
M  V30 45 H 8.193753 4.816358 -20.118234 0
M  V30 46 H 9.978616 4.409104 -11.575018 0
M  V30 47 H 9.038295 3.992054 -10.088676 0
M  V30 48 H 7.249509 5.615789 -10.617276 0
M  V30 49 H 5.422552 5.387012 -14.772746 0
M  V30 50 H 11.535276 6.339933 -8.276101 0
M  V30 51 H 6.113702 3.625003 -20.646266 0
M  V30 52 H 7.072561 2.748159 -19.462003 0
M  V30 53 H 5.636613 3.626263 -18.954019 0
M  V30 54 H 3.797026 7.980910 -19.257638 0
M  V30 55 H 9.360810 6.792354 -6.251344 0
M  V30 56 H 10.772393 5.773936 -6.192909 0
M  V30 57 H 9.279804 5.201112 -8.353362 0
M  V30 58 H 8.575411 6.760732 -8.687758 0
M  V30 59 H 4.837486 5.781491 -18.634649 0
M  V30 60 H 11.775409 10.131758 -8.072305 0
M  V30 61 H 12.958814 8.803571 -8.164431 0
M  V30 62 H 8.707831 5.807832 -17.959897 0
M  V30 63 H 8.587187 4.063089 -17.813103 0
M  V30 64 H 6.346743 4.348627 -16.996201 0
M  V30 65 H 6.455659 5.971070 -17.213032 0
M  V30 END ATOM
M  V30 BEGIN BOND
M  V30 1 1 4 1
M  V30 2 1 5 3 CFG=1
M  V30 3 1 7 6
M  V30 4 1 8 1
M  V30 5 1 10 5
M  V30 6 1 12 5
M  V30 7 1 12 10
M  V30 8 1 13 9
M  V30 9 1 15 2
M  V30 10 1 15 14
M  V30 11 1 16 8
M  V30 12 1 16 11
M  V30 13 1 18 13
M  V30 14 2 19 7
M  V30 15 2 21 6
M  V30 16 1 21 9
M  V30 17 1 22 2
M  V30 18 1 22 14
M  V30 19 1 23 10
M  V30 20 1 23 17
M  V30 21 1 24 4
M  V30 22 1 24 15
M  V30 23 1 10 25 CFG=1
M  V30 24 1 26 17
M  V30 25 1 26 22
M  V30 26 2 27 9
M  V30 27 1 27 19
M  V30 28 1 28 5
M  V30 29 1 30 16
M  V30 30 2 30 20
M  V30 31 1 30 24
M  V30 32 1 31 13
M  V30 33 1 32 17
M  V30 34 1 32 28
M  V30 35 2 32 29
M  V30 36 1 33 8
M  V30 37 1 33 31
M  V30 38 1 34 1
M  V30 39 1 35 1
M  V30 40 1 36 2
M  V30 41 1 37 2
M  V30 42 1 38 3
M  V30 43 1 39 4
M  V30 44 1 40 4
M  V30 45 1 41 7
M  V30 46 1 8 42 CFG=3
M  V30 47 1 43 12
M  V30 48 1 44 12
M  V30 49 1 13 45 CFG=3
M  V30 50 1 46 14
M  V30 51 1 47 14
M  V30 52 1 48 15
M  V30 53 1 16 49 CFG=1
M  V30 54 1 17 50 CFG=1
M  V30 55 1 51 18
M  V30 56 1 52 18
M  V30 57 1 53 18
M  V30 58 1 54 19
M  V30 59 1 55 23
M  V30 60 1 56 23
M  V30 61 1 57 26
M  V30 62 1 58 26
M  V30 63 1 59 27
M  V30 64 1 60 28
M  V30 65 1 61 28
M  V30 66 1 62 31
M  V30 67 1 63 31
M  V30 68 1 64 33
M  V30 69 1 65 33
M  V30 END BOND
M  V30 END CTAB
M  END
>  <i_epik_Tot_Q>  (1) 
1

>  <i_epik_Tot_abs_Q>  (1) 
1

>  <i_i_glide_confnum>  (1) 
587

>  <i_i_glide_lignum>  (1) 
180

>  <i_i_glide_posenum>  (1) 
330

>  <i_i_glide_rotatable_bonds>  (1) 
8

>  <i_lp_mmshare_version>  (1) 
72125

>  <i_m_source_file_index>  (1) 
95

>  <i_f3d_flags>  (1) 
0

>  <num_sample>  (1) 
100

>  <b_lp_Chiralities_Consistent>  (1) 
1

>  <r_epik_Charging_Adjusted_Penalty>  (1) 
0.72185146143454548

>  <r_epik_Ionization_Penalty>  (1) 
0.57657023161056387

>  <r_epik_Ionization_Penalty_Charging>  (1) 
0.10328520629071786

>  <r_epik_Ionization_Penalty_Neutral>  (1) 
0.47328502531984601

>  <r_epik_State_Penalty>  (1) 
0.61856625514382757

>  <r_glide_ring_energy>  (1) 
0.91589954985557798

>  <r_i_docking_score>  (1) 
-5.0789644878604445

>  <r_i_glide_ecoul>  (1) 
-1.5538921478747767

>  <r_i_glide_eff_state_penalty>  (1) 
0.61856625514382757

>  <r_i_glide_einternal>  (1) 
5.3514904410555069

>  <r_i_glide_emodel>  (1) 
-51.247844429875833

>  <r_i_glide_emodel_strain>  (1) 
0.33015094835674574

>  <r_i_glide_energy>  (1) 
-38.795697381868955

>  <r_i_glide_erotb>  (1) 
0.52602338862990483

>  <r_i_glide_esite>  (1) 
0

>  <r_i_glide_evdw>  (1) 
-37.241805233994178

>  <r_i_glide_gscore>  (1) 
-5.6975307430042719

>  <r_i_glide_gscore_strain>  (1) 
0

>  <r_i_glide_hbond>  (1) 
0

>  <r_i_glide_ligand_efficiency>  (1) 
-0.15390801478364982

>  <r_i_glide_ligand_efficiency_ln>  (1) 
-1.129535404629455

>  <r_i_glide_ligand_efficiency_sa>  (1) 
-0.49366524108006204

>  <r_i_glide_lipo>  (1) 
-3.0083789912434433

>  <r_i_glide_metal>  (1) 
-0

>  <r_i_glide_rewards>  (1) 
-1.1200010565098073

>  <r_lp_Energy>  (1) 
45.717675

>  <r_lp_tautomer_probability>  (1) 
0.99999998000000001

>  <s_epik_cmdline>  (1) 
J2VwaWtfcHl0aG9uJywgJy1waHQnLCAnMS4wJywgJy1waCcsICc3LjQnLCAnLXRuJywgJzgnLCAnLW1hJywgJzUwMCcsICctaW1hZScsICc8aW5maWxlLm1hZT4nLCAnLW9tYWUnLCAnPG91dGZpbGUubWFlPic=

>  <s_epik_input>  (1) 
W2NIXTFbY0hdW2NIXW5uYzFbQ0BIXShbQ0gzXSlbQ0gyXVtOSF1bQ0BASF0yW0NIMl1bQ0gyXU4oQyg9TylbQ0BIXTJDbClbQ0hdM1tDSDJdTihbQ0gyXTMpW0NIMl1bQ0BASF0oQyg9TylbQ0gyXTQpW0NIMl1bQ0BdKEYpKFtDSDJdNSlbQ0BAXTQ1W09IXQ==

>  <s_glide_docking_method>  (1) 
confgen

>  <s_i_glide_gridfile>  (1) 
gpcr_drd2_6luq_protein_autoprepared_prepared

>  <s_lp_Force_Field>  (1) 
S-OPLS

>  <s_lp_Variant>  (1) 
DiffSBDD_94-3

>  <s_m_source_file>  (1) 
generated_generic_title2_ligand_DiffSBDD_2026-06-23_prepared.sdf

>  <GenAI_Model>  (1) 
DiffSBDD

>  <Protein>  (1) 
generic_title2

$$$$
DiffSBDD_15
     RDKit          3D

  0  0  0  0  0  0  0  0  0  0999 V3000
M  V30 BEGIN CTAB
M  V30 COUNTS 79 80 0 0 1
M  V30 BEGIN ATOM
M  V30 1 F 9.104773 4.326469 -22.900369 0
M  V30 2 C 9.962820 7.155362 -9.841140 0
M  V30 3 C 8.847061 4.192229 -19.236492 0
M  V30 4 C 9.328028 3.999874 -20.545448 0
M  V30 5 C 7.647726 3.341626 -14.445857 0 CFG=1
M  V30 6 N 7.441353 4.363565 -16.656779 0
M  V30 7 O 12.559613 7.736804 -2.933747 0
M  V30 8 C 6.939220 5.457241 -20.157933 0
M  V30 9 F 10.686951 8.270394 -9.579709 0
M  V30 10 C 11.775590 6.788582 -2.939943 0
M  V30 11 C 7.008756 4.389709 -15.373141 0
M  V30 12 O 6.136733 6.041641 -17.478094 0
M  V30 13 C 7.922906 3.872838 -13.030613 0
M  V30 14 C 8.443313 -0.453380 -18.389219 0
M  V30 15 C 8.542315 1.075514 -18.588097 0 CFG=1
M  V30 16 C 9.518312 6.902290 -7.355984 0
M  V30 17 C 5.774644 1.817205 -13.431309 0
M  V30 18 C 7.610512 4.933313 -19.027493 0
M  V30 19 O 8.342058 -0.796181 -17.017012 0
M  V30 20 O 7.281513 1.644236 -18.306876 0
M  V30 21 C 12.965639 9.969442 -5.968781 0
M  V30 22 C 9.375803 6.425432 -8.780826 0
M  V30 23 C 10.923716 6.713932 -6.786043 0
M  V30 24 C 8.829978 5.113124 -12.890280 0
M  V30 25 C 7.444878 5.248636 -21.454505 0
M  V30 26 O 6.601256 1.422840 -15.649539 0
M  V30 27 C 8.443413 4.852900 -10.378351 0
M  V30 28 C 11.475873 9.810862 -6.283768 0
M  V30 29 O 6.171444 5.185073 -14.936933 0
M  V30 30 C 10.711243 8.866775 -5.338857 0
M  V30 31 C 6.966486 1.938653 -14.382978 0 CFG=1
M  V30 32 C 8.629918 4.521172 -21.647292 0
M  V30 33 C 7.000370 5.174743 -17.636610 0
M  V30 34 C 11.137216 7.383938 -5.415826 0 CFG=1
M  V30 35 S 9.817264 3.543811 -17.877001 0
M  V30 36 C 8.624252 5.273518 -9.055251 0
M  V30 37 C 9.666045 1.727386 -17.754579 0
M  V30 38 C 9.787950 6.725767 -11.173124 0
M  V30 39 C 9.026088 5.573428 -11.445931 0
M  V30 40 C 10.915736 6.467395 -4.186386 0
M  V30 41 H 10.244287 3.453019 -20.702920 0
M  V30 42 H 8.602007 3.161165 -14.911969 0
M  V30 43 H 8.139108 3.674104 -16.903721 0
M  V30 44 H 6.022745 6.013950 -20.028924 0
M  V30 45 H 11.632130 6.123623 -2.088724 0
M  V30 46 H 6.962071 4.090594 -12.561549 0
M  V30 47 H 8.383896 3.056324 -12.471155 0
M  V30 48 H 9.325056 -0.942845 -18.804347 0
M  V30 49 H 7.582349 -0.852109 -18.928732 0
M  V30 50 H 8.739122 1.264233 -19.643313 0
M  V30 51 H 9.224599 7.949494 -7.383857 0
M  V30 52 H 8.785911 6.402400 -6.721085 0
M  V30 53 H 6.108894 1.843051 -12.392796 0
M  V30 54 H 5.058969 2.626610 -13.567855 0
M  V30 55 H 5.249026 0.870480 -13.567749 0
M  V30 56 H 8.179929 -1.727033 -16.929929 0
M  V30 57 H 7.052908 1.436736 -17.403162 0
M  V30 58 H 13.332900 10.901157 -6.384752 0
M  V30 59 H 13.158349 9.974060 -4.897036 0
M  V30 60 H 13.565195 9.190151 -6.425127 0
M  V30 61 H 11.167869 5.651276 -6.739333 0
M  V30 62 H 11.642675 7.142278 -7.485770 0
M  V30 63 H 9.811072 4.900925 -13.315308 0
M  V30 64 H 8.420803 5.947787 -13.460075 0
M  V30 65 H 6.917280 5.649574 -22.306702 0
M  V30 66 H 6.484949 0.485039 -15.563982 0
M  V30 67 H 7.850040 3.987326 -10.571629 0
M  V30 68 H 11.365144 9.507092 -7.325187 0
M  V30 69 H 11.007273 10.789408 -6.194284 0
M  V30 70 H 9.658695 8.958013 -5.586023 0
M  V30 71 H 10.833896 9.248610 -4.326939 0
M  V30 72 H 7.723864 1.240608 -14.021579 0
M  V30 73 H 12.175192 7.468226 -5.367190 0
M  V30 74 H 8.167003 4.720805 -8.248207 0
M  V30 75 H 9.527274 1.503794 -16.697695 0
M  V30 76 H 10.624816 1.289207 -18.028802 0
M  V30 77 H 10.232035 7.283444 -11.983333 0
M  V30 78 H 9.862726 6.388533 -3.927490 0
M  V30 79 H 11.204305 5.461211 -4.466689 0
M  V30 END ATOM
M  V30 BEGIN BOND
M  V30 1 1 4 3
M  V30 2 1 9 2
M  V30 3 2 10 7
M  V30 4 1 11 5
M  V30 5 1 11 6
M  V30 6 1 13 5
M  V30 7 1 15 14
M  V30 8 2 18 3
M  V30 9 1 18 8
M  V30 10 1 19 14
M  V30 11 1 20 15
M  V30 12 2 22 2
M  V30 13 1 22 16
M  V30 14 1 23 16
M  V30 15 1 24 13
M  V30 16 2 25 8
M  V30 17 1 28 21
M  V30 18 2 29 11
M  V30 19 1 30 28
M  V30 20 1 31 5
M  V30 21 1 31 17
M  V30 22 1 31 26
M  V30 23 1 32 1
M  V30 24 2 32 4
M  V30 25 1 32 25
M  V30 26 1 33 6
M  V30 27 2 33 12
M  V30 28 1 33 18
M  V30 29 1 34 23
M  V30 30 1 34 30
M  V30 31 1 35 3
M  V30 32 1 36 22
M  V30 33 2 36 27
M  V30 34 1 37 15
M  V30 35 1 37 35
M  V30 36 1 38 2
M  V30 37 1 39 24
M  V30 38 1 39 27
M  V30 39 2 39 38
M  V30 40 1 40 10
M  V30 41 1 40 34
M  V30 42 1 41 4
M  V30 43 1 5 42 CFG=3
M  V30 44 1 43 6
M  V30 45 1 44 8
M  V30 46 1 45 10
M  V30 47 1 46 13
M  V30 48 1 47 13
M  V30 49 1 48 14
M  V30 50 1 49 14
M  V30 51 1 15 50 CFG=3
M  V30 52 1 51 16
M  V30 53 1 52 16
M  V30 54 1 53 17
M  V30 55 1 54 17
M  V30 56 1 55 17
M  V30 57 1 56 19
M  V30 58 1 57 20
M  V30 59 1 58 21
M  V30 60 1 59 21
M  V30 61 1 60 21
M  V30 62 1 61 23
M  V30 63 1 62 23
M  V30 64 1 63 24
M  V30 65 1 64 24
M  V30 66 1 65 25
M  V30 67 1 66 26
M  V30 68 1 67 27
M  V30 69 1 68 28
M  V30 70 1 69 28
M  V30 71 1 70 30
M  V30 72 1 71 30
M  V30 73 1 31 72 CFG=1
M  V30 74 1 34 73 CFG=3
M  V30 75 1 74 36
M  V30 76 1 75 37
M  V30 77 1 76 37
M  V30 78 1 77 38
M  V30 79 1 78 40
M  V30 80 1 79 40
M  V30 END BOND
M  V30 END CTAB
M  END
>  <i_epik_Tot_Q>  (1) 
0

>  <i_epik_Tot_abs_Q>  (1) 
0

>  <i_i_glide_confnum>  (1) 
2570

>  <i_i_glide_lignum>  (1) 
30

>  <i_i_glide_posenum>  (1) 
273

>  <i_i_glide_rotatable_bonds>  (1) 
22

>  <i_lp_mmshare_version>  (1) 
72125

>  <i_m_source_file_index>  (1) 
16

>  <i_f3d_flags>  (1) 
0

>  <num_sample>  (1) 
100

>  <b_lp_Chiralities_Consistent>  (1) 
1

>  <r_epik_Charging_Adjusted_Penalty>  (1) 
0

>  <r_epik_Ionization_Penalty>  (1) 
3.4355340850982391e-06

>  <r_epik_Ionization_Penalty_Charging>  (1) 
0

>  <r_epik_Ionization_Penalty_Neutral>  (1) 
3.4355340850982391e-06

>  <r_epik_State_Penalty>  (1) 
-0

>  <r_glide_ring_energy>  (1) 
0

>  <r_i_docking_score>  (1) 
-5.0780024690045034

>  <r_i_glide_ecoul>  (1) 
-2.3590782823322285

>  <r_i_glide_eff_state_penalty>  (1) 
-0

>  <r_i_glide_einternal>  (1) 
9.9768910907001356

>  <r_i_glide_emodel>  (1) 
-40.663933768240341

>  <r_i_glide_emodel_strain>  (1) 
4.1644890945335291

>  <r_i_glide_energy>  (1) 
-39.846189468061695

>  <r_i_glide_erotb>  (1) 
0.95789386429869372

>  <r_i_glide_esite>  (1) 
-0.0020084990108276274

>  <r_i_glide_evdw>  (1) 
-37.487111185729468

>  <r_i_glide_gscore>  (1) 
-5.0780024690045034

>  <r_i_glide_gscore_strain>  (1) 
0.041122273633382278

>  <r_i_glide_hbond>  (1) 
0

>  <r_i_glide_ligand_efficiency>  (1) 
-0.12695006172511258

>  <r_i_glide_ligand_efficiency_ln>  (1) 
-1.082988487697025

>  <r_i_glide_ligand_efficiency_sa>  (1) 
-0.43416310395812907

>  <r_i_glide_lipo>  (1) 
-2.531381346621107

>  <r_i_glide_metal>  (1) 
-0

>  <r_i_glide_rewards>  (1) 
-1.3154114596683371

>  <r_lp_Energy>  (1) 
37.492081999999996

>  <r_lp_tautomer_probability>  (1) 
1

>  <s_epik_cmdline>  (1) 
J2VwaWtfcHl0aG9uJywgJy1waHQnLCAnMS4wJywgJy1waCcsICc3LjQnLCAnLXRuJywgJzgnLCAnLW1hJywgJzUwMCcsICctaW1hZScsICc8aW5maWxlLm1hZT4nLCAnLW9tYWUnLCAnPG91dGZpbGUubWFlPic=

>  <s_epik_input>  (1) 
W09IXVtDSDJdW0NAQEhdKFtPSF0pW0NIMl1TYzFbY0hdYyhGKVtjSF1bY0hdYzFDKD1PKVtOSF1DKD1PKVtDQEhdKFtDQEBIXShbQ0gzXSlbT0hdKVtDSDJdW0NIMl1jKFtjSF0yKVtjSF1bY0hdYyhjMkYpW0NIMl1bQ0gyXVtDQEhdKFtDSDJdW0NIXT1PKVtDSDJdW0NIMl1bQ0gzXQ==

>  <s_glide_docking_method>  (1) 
confgen

>  <s_i_glide_gridfile>  (1) 
gpcr_drd2_6luq_protein_autoprepared_prepared

>  <s_lp_Force_Field>  (1) 
S-OPLS

>  <s_lp_Variant>  (1) 
DiffSBDD_15-1

>  <s_m_source_file>  (1) 
generated_generic_title2_ligand_DiffSBDD_2026-06-23_prepared.sdf

>  <GenAI_Model>  (1) 
DiffSBDD

>  <Protein>  (1) 
generic_title2

$$$$
DiffSBDD_44
     RDKit          3D

  0  0  0  0  0  0  0  0  0  0999 V3000
M  V30 BEGIN CTAB
M  V30 COUNTS 46 48 0 0 1
M  V30 BEGIN ATOM
M  V30 1 C 6.278519 4.753371 -11.734079 0 CFG=2
M  V30 2 C 8.793921 5.740849 -7.643416 0
M  V30 3 C 10.120486 7.248808 -6.017958 0
M  V30 4 C 6.233258 4.452202 -13.172068 0 CFG=1
M  V30 5 O 10.578341 6.695902 -8.936797 0
M  V30 6 C 11.981050 9.167753 -5.087891 0
M  V30 7 C 10.867461 7.017832 -4.844938 0
M  V30 8 C 8.741097 5.307748 -12.681611 0
M  V30 9 O 9.525070 8.790227 -7.797225 0
M  V30 10 O 7.384234 1.680054 -15.459558 0
M  V30 11 C 9.101500 6.230444 -6.408148 0
M  V30 12 C 10.303150 8.477737 -6.721390 0
M  V30 13 O 6.577739 2.092416 -12.921744 0
M  V30 14 C 7.413345 3.008392 -14.978913 0
M  V30 15 C 8.908681 5.541213 -10.180566 0
M  V30 16 N 7.269880 7.939236 -11.985021 0 CHG=1
M  V30 17 C 9.531684 5.952216 -11.522284 0
M  V30 18 O 5.038588 4.390516 -12.367686 0
M  V30 19 C 7.210760 5.523007 -12.663606 0 CFG=2
M  V30 20 C 6.723435 3.097634 -13.619336 0
M  V30 21 C 11.780097 7.971852 -4.378687 0
M  V30 22 C 9.522397 6.069760 -8.892902 0
M  V30 23 C 6.822002 6.961301 -12.993578 0
M  V30 24 C 11.248849 9.419067 -6.257307 0
M  V30 25 H 6.696727 3.990277 -11.079955 0
M  V30 26 H 7.977138 5.039768 -7.730531 0
M  V30 27 H 12.693030 9.895919 -4.728297 0
M  V30 28 H 10.720744 6.102131 -4.290511 0
M  V30 29 H 9.148381 5.638105 -13.636635 0
M  V30 30 H 8.951364 4.239080 -12.633098 0
M  V30 31 H 9.930599 9.397583 -8.393757 0
M  V30 32 H 7.603981 1.104659 -14.739222 0
M  V30 33 H 8.530941 5.843702 -5.585721 0
M  V30 34 H 8.447090 3.336506 -14.882711 0
M  V30 35 H 6.912275 3.666381 -15.688797 0
M  V30 36 H 8.884646 4.453330 -10.114067 0
M  V30 37 H 7.875607 5.880865 -10.141863 0
M  V30 38 H 6.902156 8.853203 -12.194536 0
M  V30 39 H 8.276659 7.984622 -11.970792 0
M  V30 40 H 10.563798 5.616107 -11.590404 0
M  V30 41 H 9.601416 7.034555 -11.609795 0
M  V30 42 H 12.338698 7.781806 -3.473725 0
M  V30 43 H 7.220658 7.237584 -13.970379 0
M  V30 44 H 5.735210 7.031642 -13.066828 0
M  V30 45 H 11.389169 10.349734 -6.783926 0
M  V30 46 H 6.974813 7.695998 -11.028764 0
M  V30 END ATOM
M  V30 BEGIN BOND
M  V30 1 1 4 1
M  V30 2 2 7 3
M  V30 3 2 11 2
M  V30 4 1 11 3
M  V30 5 1 12 3
M  V30 6 1 12 9
M  V30 7 1 14 10
M  V30 8 1 17 8
M  V30 9 1 17 15
M  V30 10 1 18 1
M  V30 11 1 18 4
M  V30 12 1 19 1
M  V30 13 1 19 4
M  V30 14 1 19 8 CFG=1
M  V30 15 1 4 20 CFG=1
M  V30 16 2 20 13
M  V30 17 1 20 14
M  V30 18 2 21 6
M  V30 19 1 21 7
M  V30 20 1 22 2
M  V30 21 2 22 5
M  V30 22 1 22 15
M  V30 23 1 23 16
M  V30 24 1 23 19
M  V30 25 1 24 6
M  V30 26 2 24 12
M  V30 27 1 1 25 CFG=1
M  V30 28 1 26 2
M  V30 29 1 27 6
M  V30 30 1 28 7
M  V30 31 1 29 8
M  V30 32 1 30 8
M  V30 33 1 31 9
M  V30 34 1 32 10
M  V30 35 1 33 11
M  V30 36 1 34 14
M  V30 37 1 35 14
M  V30 38 1 36 15
M  V30 39 1 37 15
M  V30 40 1 38 16
M  V30 41 1 39 16
M  V30 42 1 40 17
M  V30 43 1 41 17
M  V30 44 1 42 21
M  V30 45 1 43 23
M  V30 46 1 44 23
M  V30 47 1 45 24
M  V30 48 1 46 16
M  V30 END BOND
M  V30 END CTAB
M  END
>  <i_epik_Tot_Q>  (1) 
1

>  <i_epik_Tot_abs_Q>  (1) 
1

>  <i_i_glide_confnum>  (1) 
634

>  <i_i_glide_lignum>  (1) 
72

>  <i_i_glide_posenum>  (1) 
219

>  <i_i_glide_rotatable_bonds>  (1) 
11

>  <i_lp_mmshare_version>  (1) 
72125

>  <i_m_source_file_index>  (1) 
45

>  <i_f3d_flags>  (1) 
0

>  <num_sample>  (1) 
100

>  <b_lp_Chiralities_Consistent>  (1) 
1

>  <r_epik_Charging_Adjusted_Penalty>  (1) 
0.0039975134785533318

>  <r_epik_Ionization_Penalty>  (1) 
0.0083805373542956835

>  <r_epik_Ionization_Penalty_Charging>  (1) 
0.0039975134785533318

>  <r_epik_Ionization_Penalty_Neutral>  (1) 
0.0043830238757423508

>  <r_epik_State_Penalty>  (1) 
-0

>  <r_glide_ring_energy>  (1) 
0

>  <r_i_docking_score>  (1) 
-5.0761441924928326

>  <r_i_glide_ecoul>  (1) 
-7.8759743323632554

>  <r_i_glide_eff_state_penalty>  (1) 
-0

>  <r_i_glide_einternal>  (1) 
14.309839114181937

>  <r_i_glide_emodel>  (1) 
-42.943310265054919

>  <r_i_glide_emodel_strain>  (1) 
0.68412577078761672

>  <r_i_glide_energy>  (1) 
-33.235824451816896

>  <r_i_glide_erotb>  (1) 
1.3638172886518747

>  <r_i_glide_esite>  (1) 
-0.16667891518913389

>  <r_i_glide_evdw>  (1) 
-25.359850119453643

>  <r_i_glide_gscore>  (1) 
-5.0761441924928326

>  <r_i_glide_gscore_strain>  (1) 
0

>  <r_i_glide_hbond>  (1) 
-0.20000000000000001

>  <r_i_glide_ligand_efficiency>  (1) 
-0.21150600802053468

>  <r_i_glide_ligand_efficiency_ln>  (1) 
-1.2149542343426665

>  <r_i_glide_ligand_efficiency_sa>  (1) 
-0.61008889837010283

>  <r_i_glide_lipo>  (1) 
-1.810779586161239

>  <r_i_glide_metal>  (1) 
-0

>  <r_i_glide_rewards>  (1) 
-1.8131143239671639

>  <r_lp_Energy>  (1) 
27.234783

>  <r_lp_tautomer_probability>  (1) 
1

>  <s_epik_cmdline>  (1) 
J2VwaWtfcHl0aG9uJywgJy1waHQnLCAnMS4wJywgJy1waCcsICc3LjQnLCAnLXRuJywgJzgnLCAnLW1hJywgJzUwMCcsICctaW1hZScsICc8aW5maWxlLm1hZT4nLCAnLW9tYWUnLCAnPG91dGZpbGUubWFlPic=

>  <s_epik_input>  (1) 
W09IXVtDSDJdQyg9TylbQ0BdMTJbQ0BIXShPMSlbQ0BAXTIoW0NIMl1bTkgyXSlbQ0gyXVtDSDJdW0NIMl1DKD1PKS9bQ0hdPVtDSF1cYzNbY0hdW2NIXVtjSF1bY0hdYzNbT0hd

>  <s_glide_docking_method>  (1) 
confgen

>  <s_i_glide_gridfile>  (1) 
gpcr_drd2_6luq_protein_autoprepared_prepared

>  <s_lp_Force_Field>  (1) 
S-OPLS

>  <s_lp_Variant>  (1) 
DiffSBDD_44-2

>  <s_m_source_file>  (1) 
generated_generic_title2_ligand_DiffSBDD_2026-06-23_prepared.sdf

>  <GenAI_Model>  (1) 
DiffSBDD

>  <Protein>  (1) 
generic_title2

$$$$
DiffSBDD_78
     RDKit          3D

  0  0  0  0  0  0  0  0  0  0999 V3000
M  V30 BEGIN CTAB
M  V30 COUNTS 80 84 0 0 1
M  V30 BEGIN ATOM
M  V30 1 C 10.988693 8.437558 -8.317234 0 CFG=2
M  V30 2 C 12.285304 8.551884 -9.131595 0
M  V30 3 C 5.697259 2.443232 -13.388514 0 CFG=1
M  V30 4 C 7.504581 3.601557 -15.287592 0 CFG=2
M  V30 5 C 11.169393 8.776069 -6.831716 0
M  V30 6 N 8.986875 4.314440 -17.184944 0
M  V30 7 C 7.927113 2.334840 -14.498197 0 CFG=1
M  V30 8 C 7.606281 3.723101 -12.430154 0 CFG=1
M  V30 9 N 10.439636 7.070247 -8.323519 0 CFG=1 CHG=1
M  V30 10 C 9.559289 6.974288 -7.144131 0
M  V30 11 N 8.228470 4.937214 -11.834930 0 CFG=2 CHG=1
M  V30 12 C 5.258197 4.793278 -12.501309 0
M  V30 13 C 8.653529 4.516424 -15.772096 0
M  V30 14 C 7.163987 4.591950 -18.860186 0
M  V30 15 O 6.578614 4.370330 -14.490121 0
M  V30 16 C 8.540982 6.039966 -12.776329 0
M  V30 17 C 6.517257 5.629465 -19.796471 0 CFG=1
M  V30 18 C 6.175265 1.097589 -12.856083 0
M  V30 19 C 6.278373 3.859868 -13.177351 0 CFG=2
M  V30 20 F 6.013255 6.619676 -19.054448 0
M  V30 21 C 10.171970 7.887813 -6.084428 0
M  V30 22 C 5.289083 4.944840 -10.963352 0
M  V30 23 O 9.275587 5.689643 -19.047510 0
M  V30 24 C 8.575511 2.779935 -13.157349 0
M  V30 25 C 7.592352 6.221616 -20.725766 0 CFG=1
M  V30 26 C 9.352792 5.219392 -9.591108 0
M  V30 27 C 8.341983 5.246399 -18.112687 0 CFG=2
M  V30 28 C 9.807024 6.680729 -9.604420 0
M  V30 29 C 9.375394 4.563590 -10.975005 0
M  V30 30 C 5.338398 5.033941 -20.581310 0
M  V30 31 C 8.799839 6.717437 -19.912777 0
M  V30 32 C 6.628711 1.584318 -14.212615 0 CFG=1
M  V30 33 F 8.008473 5.308995 -21.605593 0
M  V30 34 H 10.233150 9.102602 -8.743298 0
M  V30 35 H 12.584124 9.590227 -9.185238 0
M  V30 36 H 13.103897 7.985515 -8.688221 0
M  V30 37 H 12.168997 8.224523 -10.163383 0
M  V30 38 H 4.632833 2.424658 -13.585017 0
M  V30 39 H 6.947494 3.269365 -16.160893 0
M  V30 40 H 11.022732 9.834592 -6.620872 0
M  V30 41 H 12.175416 8.524285 -6.502939 0
M  V30 42 H 9.989308 4.427921 -17.300899 0
M  V30 43 H 8.575407 1.688239 -15.084927 0
M  V30 44 H 7.244954 3.190297 -11.585066 0
M  V30 45 H 8.575337 7.349257 -7.409977 0
M  V30 46 H 9.446907 5.947797 -6.794062 0
M  V30 47 H 5.328187 5.788127 -12.941512 0
M  V30 48 H 4.288435 4.390226 -12.782929 0
M  V30 49 H 9.549677 4.388977 -15.168678 0
M  V30 50 H 8.368705 5.555429 -15.608172 0
M  V30 51 H 7.535947 3.734084 -19.421568 0
M  V30 52 H 6.432331 4.229138 -18.140019 0
M  V30 53 H 9.371816 5.782886 -13.430854 0
M  V30 54 H 7.681701 6.309006 -13.388024 0
M  V30 55 H 8.823534 6.938457 -12.230090 0
M  V30 56 H 6.881620 1.035205 -12.038487 0
M  V30 57 H 5.448769 0.286950 -12.854146 0
M  V30 58 H 9.394149 8.472669 -5.600504 0
M  V30 59 H 10.676189 7.306692 -5.310759 0
M  V30 60 H 4.474571 5.590233 -10.635547 0
M  V30 61 H 5.188020 3.984620 -10.455919 0
M  V30 62 H 6.172553 5.443273 -10.575357 0
M  V30 63 H 8.789807 1.900715 -12.554007 0
M  V30 64 H 9.542963 3.269009 -13.185095 0
M  V30 65 H 7.180920 7.040100 -21.317511 0
M  V30 66 H 8.364821 5.130061 -9.134737 0
M  V30 67 H 10.024738 4.643427 -8.951579 0
M  V30 68 H 8.000251 6.129346 -17.573224 0
M  V30 69 H 10.536481 6.808555 -10.401775 0
M  V30 70 H 8.975540 7.341950 -9.845234 0
M  V30 71 H 9.375507 3.490663 -10.785044 0
M  V30 72 H 10.289252 4.744791 -11.538501 0
M  V30 73 H 5.660730 4.208365 -21.215765 0
M  V30 74 H 4.575410 4.650192 -19.906191 0
M  V30 75 H 4.870149 5.782987 -21.220231 0
M  V30 76 H 8.527085 7.590163 -19.320337 0
M  V30 77 H 9.606064 7.028922 -20.577856 0
M  V30 78 H 6.185956 1.098478 -15.080042 0
M  V30 79 H 11.215061 6.446648 -8.150828 0
M  V30 80 H 7.517523 5.308450 -11.219071 0
M  V30 END ATOM
M  V30 BEGIN BOND
M  V30 1 1 2 1
M  V30 2 1 5 1
M  V30 3 1 7 4
M  V30 4 1 9 1
M  V30 5 1 10 9
M  V30 6 1 11 8
M  V30 7 1 13 4
M  V30 8 1 13 6
M  V30 9 1 15 4
M  V30 10 1 16 11
M  V30 11 1 17 14
M  V30 12 1 18 3
M  V30 13 1 19 3
M  V30 14 1 19 8
M  V30 15 1 19 12 CFG=1
M  V30 16 1 19 15
M  V30 17 1 17 20 CFG=1
M  V30 18 1 21 5
M  V30 19 1 21 10
M  V30 20 1 22 12
M  V30 21 1 24 7
M  V30 22 1 24 8
M  V30 23 1 25 17
M  V30 24 1 27 6
M  V30 25 1 27 14
M  V30 26 1 27 23
M  V30 27 1 28 9
M  V30 28 1 28 26
M  V30 29 1 29 11
M  V30 30 1 29 26
M  V30 31 1 30 17
M  V30 32 1 31 23
M  V30 33 1 31 25
M  V30 34 1 32 3
M  V30 35 1 32 7
M  V30 36 1 32 18
M  V30 37 1 33 25
M  V30 38 1 1 34 CFG=3
M  V30 39 1 35 2
M  V30 40 1 36 2
M  V30 41 1 37 2
M  V30 42 1 3 38 CFG=3
M  V30 43 1 4 39 CFG=3
M  V30 44 1 40 5
M  V30 45 1 41 5
M  V30 46 1 42 6
M  V30 47 1 7 43 CFG=3
M  V30 48 1 8 44 CFG=1
M  V30 49 1 45 10
M  V30 50 1 46 10
M  V30 51 1 47 12
M  V30 52 1 48 12
M  V30 53 1 49 13
M  V30 54 1 50 13
M  V30 55 1 51 14
M  V30 56 1 52 14
M  V30 57 1 53 16
M  V30 58 1 54 16
M  V30 59 1 55 16
M  V30 60 1 56 18
M  V30 61 1 57 18
M  V30 62 1 58 21
M  V30 63 1 59 21
M  V30 64 1 60 22
M  V30 65 1 61 22
M  V30 66 1 62 22
M  V30 67 1 63 24
M  V30 68 1 64 24
M  V30 69 1 25 65 CFG=3
M  V30 70 1 66 26
M  V30 71 1 67 26
M  V30 72 1 27 68 CFG=1
M  V30 73 1 69 28
M  V30 74 1 70 28
M  V30 75 1 71 29
M  V30 76 1 72 29
M  V30 77 1 73 30
M  V30 78 1 74 30
M  V30 79 1 75 30
M  V30 80 1 76 31
M  V30 81 1 77 31
M  V30 82 1 32 78 CFG=3
M  V30 83 1 9 79 CFG=1
M  V30 84 1 11 80 CFG=1
M  V30 END BOND
M  V30 END CTAB
M  END
>  <i_epik_Tot_Q>  (1) 
2

>  <i_epik_Tot_abs_Q>  (1) 
2

>  <i_i_glide_confnum>  (1) 
1229

>  <i_i_glide_lignum>  (1) 
130

>  <i_i_glide_posenum>  (1) 
308

>  <i_i_glide_rotatable_bonds>  (1) 
9

>  <i_lp_mmshare_version>  (1) 
72125

>  <i_m_source_file_index>  (1) 
79

>  <i_f3d_flags>  (1) 
0

>  <num_sample>  (1) 
100

>  <b_lp_Chiralities_Consistent>  (1) 
1

>  <r_epik_Charging_Adjusted_Penalty>  (1) 
0.22182564166484353

>  <r_epik_Ionization_Penalty>  (1) 
0.22182564166592098

>  <r_epik_Ionization_Penalty_Charging>  (1) 
0.060182310347739972

>  <r_epik_Ionization_Penalty_Neutral>  (1) 
0.16164333131818101

>  <r_epik_State_Penalty>  (1) 
0.16164333131710357

>  <r_glide_ring_energy>  (1) 
0

>  <r_i_docking_score>  (1) 
-5.0716313439258256

>  <r_i_glide_ecoul>  (1) 
-4.4425141732926559

>  <r_i_glide_eff_state_penalty>  (1) 
0.16164333131710357

>  <r_i_glide_einternal>  (1) 
18.090795637560809

>  <r_i_glide_emodel>  (1) 
-34.20058329675237

>  <r_i_glide_emodel_strain>  (1) 
2.3725500925316254

>  <r_i_glide_energy>  (1) 
-27.548277710378521

>  <r_i_glide_erotb>  (1) 
0.726867567680611

>  <r_i_glide_esite>  (1) 
-0.032049061194908295

>  <r_i_glide_evdw>  (1) 
-23.105763537085863

>  <r_i_glide_gscore>  (1) 
-5.2332746752429289

>  <r_i_glide_gscore_strain>  (1) 
0

>  <r_i_glide_hbond>  (1) 
0

>  <r_i_glide_ligand_efficiency>  (1) 
-0.15368579830078261

>  <r_i_glide_ligand_efficiency_ln>  (1) 
-1.1279045513873831

>  <r_i_glide_ligand_efficiency_sa>  (1) 
-0.49295247408257448

>  <r_i_glide_lipo>  (1) 
-2.7491209335341549

>  <r_i_glide_metal>  (1) 
-0

>  <r_i_glide_rewards>  (1) 
-1.3573069453462843

>  <r_lp_Energy>  (1) 
68.58846299999999

>  <s_epik_Chemistry_Notes>  (1) 
This compound contains an acetal/aminal-like group ( X-CH(R)-Y where X, Y are N, S, or O) that may be acid/base labile, releasing an aldehyde.

>  <s_epik_cmdline>  (1) 
J2VwaWtfcHl0aG9uJywgJy1waHQnLCAnMS4wJywgJy1waCcsICc3LjQnLCAnLXRuJywgJzgnLCAnLW1hJywgJzUwMCcsICctaW1hZScsICc8aW5maWxlLm1hZT4nLCAnLW9tYWUnLCAnPG91dGZpbGUubWFlPic=

>  <s_epik_input>  (1) 
W0NIM11bQ0BASF0xW0NIMl1bQ0gyXVtDSDJdTjFbQ0gyXVtDSDJdW0NIMl1OKFtDSDNdKVtDQEBIXTJbQ0gyXVtDQEBIXShbQ0BASF0oW0NIMl0zKVtDQEBIXTNbQ0BAXTI0W0NIMl1bQ0gzXSlbQ0BASF0oTzQpW0NIMl1bTkhdW0NASF0oW0NIMl1bQ0BdNShGKVtDSDNdKU9bQ0gyXVtDQEhdNUY=

>  <s_glide_docking_method>  (1) 
confgen

>  <s_i_glide_gridfile>  (1) 
gpcr_drd2_6luq_protein_autoprepared_prepared

>  <s_lp_Force_Field>  (1) 
S-OPLS

>  <s_lp_Variant>  (1) 
DiffSBDD_78-2

>  <s_m_source_file>  (1) 
generated_generic_title2_ligand_DiffSBDD_2026-06-23_prepared.sdf

>  <GenAI_Model>  (1) 
DiffSBDD

>  <Protein>  (1) 
generic_title2

$$$$
DiffSBDD_83
     RDKit          3D

  0  0  0  0  0  0  0  0  0  0999 V3000
M  V30 BEGIN CTAB
M  V30 COUNTS 46 48 0 0 1
M  V30 BEGIN ATOM
M  V30 1 C 6.975421 6.499289 -14.785145 0
M  V30 2 C 11.756834 8.790245 -4.812779 0
M  V30 3 C 11.041572 6.820864 -6.067960 0
M  V30 4 C 9.853318 5.919179 -8.497602 0
M  V30 5 F 12.175414 10.832217 -5.985025 0
M  V30 6 C 11.375410 7.433254 -4.842291 0
M  V30 7 C 11.489144 8.917128 -7.233880 0
M  V30 8 C 7.182558 5.156104 -12.917100 0 CFG=1
M  V30 9 C 11.811534 9.530667 -6.009545 0
M  V30 10 N 6.327813 5.442475 -15.016662 0 CHG=1
M  V30 11 N 6.792417 5.334682 -10.385028 0 CFG=1 CHG=1
M  V30 12 C 7.740968 6.517516 -13.530930 0 CFG=2
M  V30 13 C 11.098662 7.567613 -7.270568 0
M  V30 14 C 7.530449 7.839532 -12.766473 0
M  V30 15 C 5.800545 4.336521 -10.776658 0
M  V30 16 O 10.782580 6.991417 -8.480929 0
M  V30 17 C 9.196627 5.889249 -9.884787 0
M  V30 18 F 12.070094 9.380745 -3.634915 0
M  V30 19 C 7.110456 3.142024 -14.587658 0
M  V30 20 C 8.119762 4.802655 -10.004468 0
M  V30 21 C 6.249334 5.397410 -11.736785 0 CFG=2
M  V30 22 C 6.387653 4.385418 -14.049130 0 CFG=1
M  V30 23 H 6.947166 7.319310 -15.495016 0
M  V30 24 H 10.749639 5.783418 -6.084542 0
M  V30 25 H 9.078234 6.066120 -7.742000 0
M  V30 26 H 10.359995 4.976850 -8.288176 0
M  V30 27 H 11.335328 6.862807 -3.925626 0
M  V30 28 H 11.536000 9.487375 -8.149738 0
M  V30 29 H 8.025530 4.538040 -12.618725 0
M  V30 30 H 7.775408 8.695633 -13.393129 0
M  V30 31 H 6.506717 7.990221 -12.429003 0
M  V30 32 H 8.173913 7.899554 -11.892098 0
M  V30 33 H 4.941183 4.479370 -10.140823 0
M  V30 34 H 6.175417 3.324892 -10.884824 0
M  V30 35 H 9.947507 5.749328 -10.660930 0
M  V30 36 H 8.772321 6.868988 -10.069818 0
M  V30 37 H 7.188766 2.374220 -13.817283 0
M  V30 38 H 6.575431 2.705391 -15.431240 0
M  V30 39 H 8.121100 3.378670 -14.922510 0
M  V30 40 H 7.959610 4.390226 -9.010277 0
M  V30 41 H 8.466380 3.990223 -10.634662 0
M  V30 42 H 5.515356 6.190675 -11.853254 0
M  V30 43 H 5.362644 4.154363 -13.755514 0
M  V30 44 H 6.473460 6.127777 -9.827921 0
M  V30 45 H 8.795520 6.390222 -13.763802 0
M  V30 46 H 5.772322 5.328224 -15.860955 0
M  V30 END ATOM
M  V30 BEGIN BOND
M  V30 1 1 6 2
M  V30 2 2 6 3
M  V30 3 2 9 2
M  V30 4 1 9 5
M  V30 5 1 9 7
M  V30 6 2 10 1
M  V30 7 1 12 1
M  V30 8 1 12 8
M  V30 9 1 13 3
M  V30 10 2 13 7
M  V30 11 1 14 12
M  V30 12 1 15 11
M  V30 13 1 16 4
M  V30 14 1 16 13
M  V30 15 1 17 4
M  V30 16 1 18 2
M  V30 17 1 20 11
M  V30 18 1 20 17
M  V30 19 1 21 8
M  V30 20 1 21 11
M  V30 21 1 21 15
M  V30 22 1 22 8
M  V30 23 1 22 10
M  V30 24 1 22 19
M  V30 25 1 23 1
M  V30 26 1 24 3
M  V30 27 1 25 4
M  V30 28 1 26 4
M  V30 29 1 27 6
M  V30 30 1 28 7
M  V30 31 1 8 29 CFG=1
M  V30 32 1 30 14
M  V30 33 1 31 14
M  V30 34 1 32 14
M  V30 35 1 33 15
M  V30 36 1 34 15
M  V30 37 1 35 17
M  V30 38 1 36 17
M  V30 39 1 37 19
M  V30 40 1 38 19
M  V30 41 1 39 19
M  V30 42 1 40 20
M  V30 43 1 41 20
M  V30 44 1 21 42 CFG=3
M  V30 45 1 22 43 CFG=1
M  V30 46 1 11 44 CFG=1
M  V30 47 1 12 45 CFG=3
M  V30 48 1 46 10
M  V30 END BOND
M  V30 END CTAB
M  END
>  <i_epik_Tot_Q>  (1) 
2

>  <i_epik_Tot_abs_Q>  (1) 
2

>  <i_i_glide_confnum>  (1) 
29

>  <i_i_glide_lignum>  (1) 
149

>  <i_i_glide_posenum>  (1) 
393

>  <i_i_glide_rotatable_bonds>  (1) 
6

>  <i_lp_mmshare_version>  (1) 
72125

>  <i_m_source_file_index>  (1) 
84

>  <i_f3d_flags>  (1) 
0

>  <num_sample>  (1) 
100

>  <b_lp_Chiralities_Consistent>  (1) 
1

>  <r_epik_Charging_Adjusted_Penalty>  (1) 
1.5610925274032894

>  <r_epik_Ionization_Penalty>  (1) 
5.6947270193771686

>  <r_epik_Ionization_Penalty_Charging>  (1) 
0.86989266313289404

>  <r_epik_Ionization_Penalty_Neutral>  (1) 
4.824834356244275

>  <r_epik_State_Penalty>  (1) 
0.69119986427039537

>  <r_glide_ring_energy>  (1) 
0

>  <r_i_docking_score>  (1) 
-5.0712290287462558

>  <r_i_glide_ecoul>  (1) 
-7.2939144930408357

>  <r_i_glide_eff_state_penalty>  (1) 
0.69119986427039537

>  <r_i_glide_einternal>  (1) 
10.086675200182384

>  <r_i_glide_emodel>  (1) 
-44.247094856382127

>  <r_i_glide_emodel_strain>  (1) 
2.0511213631702745

>  <r_i_glide_energy>  (1) 
-32.71079417316313

>  <r_i_glide_erotb>  (1) 
0.96167990521069524

>  <r_i_glide_esite>  (1) 
-0.10000000000000001

>  <r_i_glide_evdw>  (1) 
-25.416879680122296

>  <r_i_glide_gscore>  (1) 
-5.7624288930166507

>  <r_i_glide_gscore_strain>  (1) 
0

>  <r_i_glide_hbond>  (1) 
-0.17166216790806824

>  <r_i_glide_ligand_efficiency>  (1) 
-0.23051041039755707

>  <r_i_glide_ligand_efficiency_ln>  (1) 
-1.2395933521988534

>  <r_i_glide_ligand_efficiency_sa>  (1) 
-0.64589923605946953

>  <r_i_glide_lipo>  (1) 
-1.7432588924923023

>  <r_i_glide_metal>  (1) 
-0

>  <r_i_glide_rewards>  (1) 
-2.3442565798647346

>  <r_lp_Energy>  (1) 
41.591741999999996

>  <r_lp_tautomer_probability>  (1) 
1

>  <s_epik_Chemistry_Notes>  (1) 
This compound has an imine and may undergo hydrolysis.

>  <s_epik_cmdline>  (1) 
J2VwaWtfcHl0aG9uJywgJy1waHQnLCAnMS4wJywgJy1waCcsICc3LjQnLCAnLXRuJywgJzgnLCAnLW1hJywgJzUwMCcsICctaW1hZScsICc8aW5maWxlLm1hZT4nLCAnLW9tYWUnLCAnPG91dGZpbGUubWFlPic=

>  <s_epik_input>  (1) 
W0NIM11bQ0BASF0xTj1bQ0hdW0NAQEhdKFtDSDNdKVtDQEhdMVtDQEhdMltDSDJdTjJbQ0gyXVtDSDJdW0NIMl1PYyhbY0hdYzNGKVtjSF1bY0hdYzNG

>  <s_glide_docking_method>  (1) 
confgen

>  <s_i_glide_gridfile>  (1) 
gpcr_drd2_6luq_protein_autoprepared_prepared

>  <s_lp_Force_Field>  (1) 
S-OPLS

>  <s_lp_Variant>  (1) 
DiffSBDD_83-3

>  <s_m_source_file>  (1) 
generated_generic_title2_ligand_DiffSBDD_2026-06-23_prepared.sdf

>  <GenAI_Model>  (1) 
DiffSBDD

>  <Protein>  (1) 
generic_title2

$$$$
DiffSBDD_20
     RDKit          3D

  0  0  0  0  0  0  0  0  0  0999 V3000
M  V30 BEGIN CTAB
M  V30 COUNTS 63 66 0 0 1
M  V30 BEGIN ATOM
M  V30 1 C 6.002007 5.198029 -20.736919 0
M  V30 2 C 9.504573 5.848689 -11.048640 0 CFG=2
M  V30 3 O 11.912741 7.978631 -8.426312 0
M  V30 4 O 7.807342 3.520292 -13.432740 0
M  V30 5 C 9.193236 5.927613 -9.544067 0
M  V30 6 O 8.975409 7.966190 -6.785030 0
M  V30 7 C 9.063394 7.026206 -11.868218 0 CFG=2
M  V30 8 C 5.307755 7.812805 -19.945325 0
M  V30 9 N 7.411424 5.761793 -13.105454 0
M  V30 10 C 10.648416 8.390216 -10.315386 0
M  V30 11 C 11.445413 6.111101 -5.446925 0
M  V30 12 C 5.951100 6.203942 -21.622324 0
M  V30 13 C 5.615110 7.558288 -21.230341 0
M  V30 14 C 6.038628 5.752295 -13.598727 0
M  V30 15 C 5.609898 8.674783 -22.253891 0
M  V30 16 C 9.387816 8.333869 -11.186706 0
M  V30 17 C 7.788315 4.520847 -12.458501 0 CFG=2
M  V30 18 C 9.827034 6.759116 -8.667124 0
M  V30 19 C 9.480972 6.712391 -7.177358 0 CFG=1
M  V30 20 C 9.185894 4.515765 -11.769898 0
M  V30 21 C 5.274589 6.784827 -18.855478 0 CFG=2
M  V30 22 C 7.585386 6.912324 -12.223846 0
M  V30 23 C 10.817301 7.726325 -9.157225 0
M  V30 24 C 5.541197 7.261445 -17.433973 0 CFG=2
M  V30 25 C 10.580161 6.355082 -6.271166 0
M  V30 26 C 5.725504 5.370439 -19.254938 0
M  V30 27 S 5.775417 7.136785 -14.747761 0
M  V30 28 C 7.658627 2.190489 -12.969560 0
M  V30 29 C 6.189414 6.422004 -16.351106 0
M  V30 30 C 4.141870 6.917653 -17.852975 0
M  V30 31 H 6.258250 4.202991 -21.070781 0
M  V30 32 H 10.575406 5.966254 -11.137282 0
M  V30 33 H 12.389393 8.670778 -8.857651 0
M  V30 34 H 8.449165 5.237229 -9.174826 0
M  V30 35 H 8.030264 7.919472 -6.896912 0
M  V30 36 H 9.645841 7.006375 -12.785025 0
M  V30 37 H 5.058418 8.824137 -19.657884 0
M  V30 38 H 11.408163 9.086280 -10.625743 0
M  V30 39 H 12.175291 5.886021 -4.705932 0
M  V30 40 H 6.169775 5.997063 -22.660285 0
M  V30 41 H 5.802095 4.817879 -14.108892 0
M  V30 42 H 5.348382 5.841533 -12.759371 0
M  V30 43 H 5.978025 8.328885 -23.219674 0
M  V30 44 H 4.598419 9.056651 -22.392388 0
M  V30 45 H 6.248730 9.495711 -21.926496 0
M  V30 46 H 9.375513 9.100218 -11.962862 0
M  V30 47 H 8.575418 8.626240 -10.527059 0
M  V30 48 H 7.022734 4.288123 -11.715124 0
M  V30 49 H 8.693186 5.978525 -7.004242 0
M  V30 50 H 9.927809 4.368549 -12.555835 0
M  V30 51 H 9.275411 3.664640 -11.095340 0
M  V30 52 H 7.273250 7.839508 -12.702187 0
M  V30 53 H 6.978166 6.790191 -11.326546 0
M  V30 54 H 5.746242 8.323274 -17.315650 0
M  V30 55 H 6.643399 5.118949 -18.723317 0
M  V30 56 H 4.975725 4.640245 -18.955764 0
M  V30 57 H 7.580558 1.519818 -13.824086 0
M  V30 58 H 8.521390 1.875750 -12.385136 0
M  V30 59 H 6.746404 2.073743 -12.385027 0
M  V30 60 H 7.270484 6.390194 -16.482421 0
M  V30 61 H 5.822731 5.399078 -16.401343 0
M  V30 62 H 3.718134 6.019905 -17.409621 0
M  V30 63 H 3.441745 7.742268 -17.976817 0
M  V30 END ATOM
M  V30 BEGIN BOND
M  V30 1 1 5 2
M  V30 2 1 7 2
M  V30 3 2 12 1
M  V30 4 2 13 8
M  V30 5 1 13 12
M  V30 6 1 14 9
M  V30 7 1 15 13
M  V30 8 1 16 7
M  V30 9 1 16 10
M  V30 10 1 17 4
M  V30 11 1 17 9
M  V30 12 2 18 5
M  V30 13 1 19 6
M  V30 14 1 19 18
M  V30 15 1 20 2
M  V30 16 1 20 17
M  V30 17 1 21 8
M  V30 18 1 22 7
M  V30 19 1 22 9
M  V30 20 1 23 3
M  V30 21 2 23 10
M  V30 22 1 23 18
M  V30 23 1 24 21
M  V30 24 3 25 11
M  V30 25 1 25 19
M  V30 26 1 26 1
M  V30 27 1 21 26 CFG=3
M  V30 28 1 27 14
M  V30 29 1 28 4
M  V30 30 1 29 24
M  V30 31 1 29 27
M  V30 32 1 30 21
M  V30 33 1 30 24
M  V30 34 1 31 1
M  V30 35 1 2 32 CFG=1
M  V30 36 1 33 3
M  V30 37 1 34 5
M  V30 38 1 35 6
M  V30 39 1 7 36 CFG=3
M  V30 40 1 37 8
M  V30 41 1 38 10
M  V30 42 1 39 11
M  V30 43 1 40 12
M  V30 44 1 41 14
M  V30 45 1 42 14
M  V30 46 1 43 15
M  V30 47 1 44 15
M  V30 48 1 45 15
M  V30 49 1 46 16
M  V30 50 1 47 16
M  V30 51 1 17 48 CFG=1
M  V30 52 1 19 49 CFG=3
M  V30 53 1 50 20
M  V30 54 1 51 20
M  V30 55 1 52 22
M  V30 56 1 53 22
M  V30 57 1 24 54 CFG=3
M  V30 58 1 55 26
M  V30 59 1 56 26
M  V30 60 1 57 28
M  V30 61 1 58 28
M  V30 62 1 59 28
M  V30 63 1 60 29
M  V30 64 1 61 29
M  V30 65 1 62 30
M  V30 66 1 63 30
M  V30 END BOND
M  V30 END CTAB
M  END
>  <i_epik_Tot_Q>  (1) 
0

>  <i_epik_Tot_abs_Q>  (1) 
0

>  <i_i_glide_confnum>  (1) 
36

>  <i_i_glide_lignum>  (1) 
37

>  <i_i_glide_posenum>  (1) 
349

>  <i_i_glide_rotatable_bonds>  (1) 
9

>  <i_lp_mmshare_version>  (1) 
72125

>  <i_m_source_file_index>  (1) 
21

>  <i_f3d_flags>  (1) 
0

>  <num_sample>  (1) 
100

>  <b_lp_Chiralities_Consistent>  (1) 
1

>  <r_epik_Charging_Adjusted_Penalty>  (1) 
0.01950513855595163

>  <r_epik_Ionization_Penalty>  (1) 
0.020135141086582313

>  <r_epik_Ionization_Penalty_Charging>  (1) 
0

>  <r_epik_Ionization_Penalty_Neutral>  (1) 
0.020135141086582313

>  <r_epik_State_Penalty>  (1) 
0.01950513855595163

>  <r_glide_ring_energy>  (1) 
0.0008246989819377348

>  <r_i_docking_score>  (1) 
-5.0704373930194588

>  <r_i_glide_ecoul>  (1) 
-2.9522630462592336

>  <r_i_glide_eff_state_penalty>  (1) 
0.01950513855595163

>  <r_i_glide_einternal>  (1) 
5.4167094508822649

>  <r_i_glide_emodel>  (1) 
-38.317492422230664

>  <r_i_glide_emodel_strain>  (1) 
1.2324418471096124

>  <r_i_glide_energy>  (1) 
-34.511027439544698

>  <r_i_glide_erotb>  (1) 
0.65156125310283941

>  <r_i_glide_esite>  (1) 
0

>  <r_i_glide_evdw>  (1) 
-31.558764393285461

>  <r_i_glide_gscore>  (1) 
-5.0899425315754101

>  <r_i_glide_gscore_strain>  (1) 
0

>  <r_i_glide_hbond>  (1) 
-0.16

>  <r_i_glide_ligand_efficiency>  (1) 
-0.16901457976731529

>  <r_i_glide_ligand_efficiency_ln>  (1) 
-1.1520586225343425

>  <r_i_glide_ligand_efficiency_sa>  (1) 
-0.52516759623313358

>  <r_i_glide_lipo>  (1) 
-2.5469969801061332

>  <r_i_glide_metal>  (1) 
-0

>  <r_i_glide_rewards>  (1) 
-1.0137291279689575

>  <r_lp_Energy>  (1) 
31.117341

>  <s_epik_Chemistry_Notes>  (1) 
This compound contains an acetal/aminal-like group ( X-CH(R)-Y where X, Y are N, S, or O) that may be acid/base labile, releasing an aldehyde.

>  <s_epik_cmdline>  (1) 
J2VwaWtfcHl0aG9uJywgJy1waHQnLCAnMS4wJywgJy1waCcsICc3LjQnLCAnLXRuJywgJzgnLCAnLW1hJywgJzUwMCcsICctaW1hZScsICc8aW5maWxlLm1hZT4nLCAnLW9tYWUnLCAnPG91dGZpbGUubWFlPic=

>  <s_epik_input>  (1) 
W0NIMl0xW0NIXT1bQ0hdQyhbQ0gzXSk9W0NIXVtDQF0xMltDQEBIXShbQ0gyXTIpW0NIMl1TW0NIMl1OKFtDQEhdKFtDSDJdMylPW0NIM10pW0NIMl1bQ0BIXShbQ0BIXTM0KVtDSDJdW0NIXT1DKFtPSF0pQyg9W0NIXTQpW0NASF0oW09IXSlDI1tDSF0=

>  <s_glide_docking_method>  (1) 
confgen

>  <s_i_glide_gridfile>  (1) 
gpcr_drd2_6luq_protein_autoprepared_prepared

>  <s_lp_Force_Field>  (1) 
S-OPLS

>  <s_lp_Variant>  (1) 
DiffSBDD_20-1

>  <s_m_source_file>  (1) 
generated_generic_title2_ligand_DiffSBDD_2026-06-23_prepared.sdf

>  <GenAI_Model>  (1) 
DiffSBDD

>  <Protein>  (1) 
generic_title2

$$$$
DiffSBDD_1
     RDKit          3D

  0  0  0  0  0  0  0  0  0  0999 V3000
M  V30 BEGIN CTAB
M  V30 COUNTS 73 75 0 0 1
M  V30 BEGIN ATOM
M  V30 1 F 7.040253 8.488614 -21.183037 0
M  V30 2 C 11.656586 7.590217 -10.366681 0
M  V30 3 C 5.138474 5.440669 -20.498219 0
M  V30 4 C 7.105481 7.186738 -20.858288 0
M  V30 5 C 7.409570 7.500141 -12.818152 0 CFG=1
M  V30 6 C 8.383848 4.823746 -18.432549 0
M  V30 7 F 6.632379 5.374702 -22.341138 0
M  V30 8 C 11.530140 8.892871 -7.318434 0
M  V30 9 C 6.906406 5.175689 -18.670418 0 CFG=1
M  V30 10 C 5.799686 4.480682 -19.459641 0
M  V30 11 C 8.719598 7.849266 -12.071445 0
M  V30 12 C 6.403617 6.179920 -17.589941 0 CFG=1
M  V30 13 C 7.031849 4.472609 -12.290319 0
M  V30 14 O 9.816034 5.797853 -11.597677 0
M  V30 15 C 6.650862 6.704785 -15.182230 0
M  V30 16 C 7.318870 6.317297 -13.843071 0 CFG=2
M  V30 17 C 10.332675 7.732410 -10.176057 0
M  V30 18 C 9.787054 8.723409 -9.175764 0
M  V30 19 N 8.021170 6.790220 -20.052119 0
M  V30 20 C 6.175428 3.206257 -12.223511 0
M  V30 21 O 7.125236 -0.009779 -15.641872 0
M  V30 22 O 4.998200 6.365579 -17.559866 0
M  V30 23 C 6.910940 2.006746 -12.785033 0
M  V30 24 C 6.064026 6.222662 -21.481724 0 CFG=1
M  V30 25 C 7.118744 -0.038385 -14.232518 0
M  V30 26 C 9.285290 6.939756 -10.970364 0 CFG=1
M  V30 27 C 6.383407 1.153953 -13.674033 0
M  V30 28 O 5.904900 7.681713 -15.253294 0
M  V30 29 C 7.993631 5.386904 -19.737884 0 CFG=1
M  V30 30 O 6.270717 7.590230 -11.985025 0
M  V30 31 C 12.688349 8.234045 -8.076631 0
M  V30 32 N 6.930206 5.923847 -16.241477 0
M  V30 33 C 10.132518 8.390256 -7.719894 0
M  V30 34 C 12.708113 8.390244 -9.613317 0
M  V30 35 O 6.561240 5.200297 -13.400587 0
M  V30 36 H 12.019437 6.890152 -11.102765 0
M  V30 37 H 4.428713 4.858025 -21.086415 0
M  V30 38 H 4.524351 6.172918 -19.978970 0
M  V30 39 H 7.375408 8.390230 -13.438087 0
M  V30 40 H 9.005391 5.464839 -17.809523 0
M  V30 41 H 8.631882 3.765428 -18.386631 0
M  V30 42 H 11.667421 8.703578 -6.253235 0
M  V30 43 H 11.608062 9.972892 -7.423440 0
M  V30 44 H 6.213217 3.612403 -19.975258 0
M  V30 45 H 5.048528 4.075899 -18.785011 0
M  V30 46 H 9.520541 8.015205 -12.785025 0
M  V30 47 H 8.547263 8.833911 -11.635028 0
M  V30 48 H 6.792253 7.163759 -17.852200 0
M  V30 49 H 6.923811 5.057809 -11.377574 0
M  V30 50 H 8.081811 4.213544 -12.413721 0
M  V30 51 H 9.851758 5.098249 -10.962199 0
M  V30 52 H 8.331424 5.985474 -14.079599 0
M  V30 53 H 10.264640 9.648396 -9.452947 0
M  V30 54 H 8.728306 8.907823 -9.308668 0
M  V30 55 H 5.251770 3.358499 -12.785000 0
M  V30 56 H 5.886934 3.008967 -11.190736 0
M  V30 57 H 7.371129 -0.873954 -15.945361 0
M  V30 58 H 4.799828 6.844492 -16.765254 0
M  V30 59 H 7.921473 1.850096 -12.431792 0
M  V30 60 H 5.419356 6.834519 -22.113088 0
M  V30 61 H 6.603934 -0.935947 -13.892335 0
M  V30 62 H 8.144664 -0.071038 -13.865656 0
M  V30 63 H 8.520101 6.595093 -10.283758 0
M  V30 64 H 5.375371 1.304879 -14.024346 0
M  V30 65 H 8.143494 4.726148 -20.591901 0
M  V30 66 H 6.550477 7.590253 -11.062859 0
M  V30 67 H 12.710584 7.190229 -7.794767 0
M  V30 68 H 13.607244 8.677294 -7.694362 0
M  V30 69 H 7.541697 5.130151 -16.117644 0
M  V30 70 H 10.034519 7.318777 -7.539594 0
M  V30 71 H 9.396016 8.867697 -7.072404 0
M  V30 72 H 13.689911 8.100449 -9.985121 0
M  V30 73 H 12.575455 9.438778 -9.881569 0
M  V30 END ATOM
M  V30 BEGIN BOND
M  V30 1 1 4 1
M  V30 2 1 9 6 CFG=1
M  V30 3 1 10 3
M  V30 4 1 10 9
M  V30 5 1 11 5
M  V30 6 1 12 9
M  V30 7 1 16 5
M  V30 8 1 16 15
M  V30 9 2 17 2
M  V30 10 1 18 17
M  V30 11 2 19 4
M  V30 12 1 20 13
M  V30 13 1 22 12
M  V30 14 1 23 20
M  V30 15 1 24 3
M  V30 16 1 24 4
M  V30 17 1 24 7
M  V30 18 1 25 21
M  V30 19 1 26 11
M  V30 20 1 26 14
M  V30 21 1 26 17
M  V30 22 2 27 23
M  V30 23 1 27 25
M  V30 24 2 28 15
M  V30 25 1 29 6
M  V30 26 1 29 9
M  V30 27 1 29 19
M  V30 28 1 30 5
M  V30 29 1 31 8
M  V30 30 1 32 12
M  V30 31 1 32 15
M  V30 32 1 33 8
M  V30 33 1 33 18
M  V30 34 1 34 2
M  V30 35 1 34 31
M  V30 36 1 35 13
M  V30 37 1 35 16
M  V30 38 1 36 2
M  V30 39 1 37 3
M  V30 40 1 38 3
M  V30 41 1 5 39 CFG=3
M  V30 42 1 40 6
M  V30 43 1 41 6
M  V30 44 1 42 8
M  V30 45 1 43 8
M  V30 46 1 44 10
M  V30 47 1 45 10
M  V30 48 1 46 11
M  V30 49 1 47 11
M  V30 50 1 12 48 CFG=3
M  V30 51 1 49 13
M  V30 52 1 50 13
M  V30 53 1 51 14
M  V30 54 1 16 52 CFG=3
M  V30 55 1 53 18
M  V30 56 1 54 18
M  V30 57 1 55 20
M  V30 58 1 56 20
M  V30 59 1 57 21
M  V30 60 1 58 22
M  V30 61 1 59 23
M  V30 62 1 24 60 CFG=3
M  V30 63 1 61 25
M  V30 64 1 62 25
M  V30 65 1 26 63 CFG=1
M  V30 66 1 64 27
M  V30 67 1 29 65 CFG=3
M  V30 68 1 66 30
M  V30 69 1 67 31
M  V30 70 1 68 31
M  V30 71 1 69 32
M  V30 72 1 70 33
M  V30 73 1 71 33
M  V30 74 1 72 34
M  V30 75 1 73 34
M  V30 END BOND
M  V30 END CTAB
M  END
>  <i_epik_Tot_Q>  (1) 
0

>  <i_epik_Tot_abs_Q>  (1) 
0

>  <i_i_glide_confnum>  (1) 
3568

>  <i_i_glide_lignum>  (1) 
3

>  <i_i_glide_posenum>  (1) 
175

>  <i_i_glide_rotatable_bonds>  (1) 
17

>  <i_lp_mmshare_version>  (1) 
72125

>  <i_m_source_file_index>  (1) 
2

>  <i_f3d_flags>  (1) 
0

>  <num_sample>  (1) 
100

>  <b_lp_Chiralities_Consistent>  (1) 
1

>  <r_epik_Charging_Adjusted_Penalty>  (1) 
0

>  <r_epik_Ionization_Penalty>  (1) 
3.3646854675809213e-05

>  <r_epik_Ionization_Penalty_Charging>  (1) 
0

>  <r_epik_Ionization_Penalty_Neutral>  (1) 
3.3646854675809213e-05

>  <r_epik_State_Penalty>  (1) 
-0

>  <r_glide_ring_energy>  (1) 
0.00077298911874713633

>  <r_i_docking_score>  (1) 
-5.067252412430256

>  <r_i_glide_ecoul>  (1) 
-6.8009102204724297

>  <r_i_glide_eff_state_penalty>  (1) 
-0

>  <r_i_glide_einternal>  (1) 
31.444689795443104

>  <r_i_glide_emodel>  (1) 
-33.149351012813398

>  <r_i_glide_emodel_strain>  (1) 
3.1525285664712754

>  <r_i_glide_energy>  (1) 
-39.812428185013466

>  <r_i_glide_erotb>  (1) 
0.89639897310018468

>  <r_i_glide_esite>  (1) 
0

>  <r_i_glide_evdw>  (1) 
-33.011517964541035

>  <r_i_glide_gscore>  (1) 
-5.067252412430256

>  <r_i_glide_gscore_strain>  (1) 
0

>  <r_i_glide_hbond>  (1) 
-0.19072710943040741

>  <r_i_glide_ligand_efficiency>  (1) 
-0.14477864035515017

>  <r_i_glide_ligand_efficiency_ln>  (1) 
-1.112374366136464

>  <r_i_glide_ligand_efficiency_sa>  (1) 
-0.473580532900642

>  <r_i_glide_lipo>  (1) 
-1.7031639821945934

>  <r_i_glide_metal>  (1) 
-0

>  <r_i_glide_rewards>  (1) 
-1.3990478626075231

>  <r_lp_Energy>  (1) 
36.910070999999995

>  <r_lp_tautomer_probability>  (1) 
1

>  <s_epik_Chemistry_Notes>  (1) 
This compound has an imine and may undergo hydrolysis. This compound contains an acetal/aminal-like group ( X-CH(R)-Y where X, Y are N, S, or O) that may be acid/base labile, releasing an aldehyde.

>  <s_epik_cmdline>  (1) 
J2VwaWtfcHl0aG9uJywgJy1waHQnLCAnMS4wJywgJy1waCcsICc3LjQnLCAnLXRuJywgJzgnLCAnLW1hJywgJzUwMCcsICctaW1hZScsICc8aW5maWxlLm1hZT4nLCAnLW9tYWUnLCAnPG91dGZpbGUubWFlPic=

>  <s_epik_input>  (1) 
W0NIMl0xW0NIMl1bQ0BIXShGKUMoRik9TltDQEBIXShbQ0gyXTIpQzEyW0NAQEhdKFtPSF0pW05IXUMoPU8pW0NASF0oT1tDSDJdW0NIMl0vW0NIXT1bQ0hdL1tDSDJdW09IXSlbQ0BASF0oW09IXSlbQ0gyXVtDQEBIXShbT0hdKUMzPVtDSF1bQ0gyXVtDSDJdW0NIMl1bQ0gyXVtDSDJdMw==

>  <s_glide_docking_method>  (1) 
confgen

>  <s_i_glide_gridfile>  (1) 
gpcr_drd2_6luq_protein_autoprepared_prepared

>  <s_lp_Force_Field>  (1) 
S-OPLS

>  <s_lp_Variant>  (1) 
DiffSBDD_1-2

>  <s_m_source_file>  (1) 
generated_generic_title2_ligand_DiffSBDD_2026-06-23_prepared.sdf

>  <GenAI_Model>  (1) 
DiffSBDD

>  <Protein>  (1) 
generic_title2

$$$$
DiffSBDD_51
     RDKit          3D

  0  0  0  0  0  0  0  0  0  0999 V3000
M  V30 BEGIN CTAB
M  V30 COUNTS 67 70 0 0 1
M  V30 BEGIN ATOM
M  V30 1 C 12.237553 9.061917 -7.460319 0
M  V30 2 C 8.257512 6.424360 -11.184977 0
M  V30 3 C 10.980103 7.624412 -9.115296 0
M  V30 4 C 9.746452 6.201364 -10.863312 0 CFG=1
M  V30 5 C 6.021885 -0.615378 -16.600266 0
M  V30 6 N 4.975377 -2.578964 -17.580465 0
M  V30 7 C 6.416712 4.933041 -15.055424 0
M  V30 8 N 7.788537 5.858781 -12.445646 0
M  V30 9 C 8.321159 2.027970 -18.115683 0
M  V30 10 C 11.219560 7.997018 -7.775728 0
M  V30 11 C 7.442819 0.827651 -17.973738 0
M  V30 12 C 6.382455 -1.141586 -18.958233 0
M  V30 13 C 7.207580 -0.007773 -19.087609 0
M  V30 14 C 7.659614 4.397842 -12.468467 0 CFG=1
M  V30 15 C 5.849634 4.202476 -10.950799 0
M  V30 16 N 7.375397 2.807223 -15.912830 0
M  V30 17 C 10.627003 6.881839 -11.930756 0
M  V30 18 C 7.429805 6.696277 -13.511078 0
M  V30 19 C 8.488330 2.949526 -16.879174 0 CFG=2
M  V30 20 C 6.844935 0.524290 -16.726896 0
M  V30 21 C 9.318402 6.003626 -8.354550 0
M  V30 22 O 8.912593 2.268656 -19.169437 0
M  V30 23 C 7.090242 1.417625 -15.524902 0
M  V30 24 C 4.657391 -3.426094 -18.576545 0
M  V30 25 N 4.333020 -4.158175 -19.411249 0
M  V30 26 O 6.370224 3.909961 -12.240646 0
M  V30 27 N 7.260622 3.757650 -14.844227 0
M  V30 28 C 10.504229 7.381496 -6.732984 0
M  V30 29 C 8.697214 4.414054 -17.328561 0
M  V30 30 C 10.024729 6.622810 -9.410154 0
M  V30 31 C 6.837600 6.338230 -14.672266 0
M  V30 32 C 9.554361 6.390269 -7.022284 0
M  V30 33 C 8.234779 3.802288 -13.762744 0
M  V30 34 C 5.790138 -1.449618 -17.713796 0
M  V30 35 H 12.573020 9.010201 -6.425072 0
M  V30 36 H 11.775403 10.031960 -7.614509 0
M  V30 37 H 13.107986 8.965605 -8.110407 0
M  V30 38 H 8.054917 7.494898 -11.185020 0
M  V30 39 H 7.648522 5.990299 -10.394657 0
M  V30 40 H 11.528197 8.106935 -9.908703 0
M  V30 41 H 9.942223 5.131286 -10.904124 0
M  V30 42 H 5.568488 -0.849372 -15.647091 0
M  V30 43 H 4.612508 -2.765003 -16.650842 0
M  V30 44 H 6.175380 4.980233 -16.115959 0
M  V30 45 H 5.468262 4.753335 -14.549261 0
M  V30 46 H 6.206455 -1.776628 -19.813933 0
M  V30 47 H 7.659711 0.220452 -20.041976 0
M  V30 48 H 8.265818 4.011261 -11.648981 0
M  V30 49 H 5.544325 5.247153 -10.878696 0
M  V30 50 H 6.566618 3.990214 -10.157162 0
M  V30 51 H 4.975425 3.590199 -10.757671 0
M  V30 52 H 11.692456 6.790276 -11.723094 0
M  V30 53 H 10.380252 7.940672 -12.004664 0
M  V30 54 H 10.458206 6.435466 -12.911086 0
M  V30 55 H 7.671690 7.733293 -13.324774 0
M  V30 56 H 9.402079 2.630373 -16.384981 0
M  V30 57 H 8.586754 5.238817 -8.568462 0
M  V30 58 H 7.926392 1.018886 -14.949687 0
M  V30 59 H 6.210980 1.400046 -14.878076 0
M  V30 60 H 10.683147 7.672288 -5.708588 0
M  V30 61 H 9.529212 4.505682 -18.027640 0
M  V30 62 H 8.934235 5.064044 -16.486937 0
M  V30 63 H 7.808894 4.810926 -17.821090 0
M  V30 64 H 6.617268 7.106611 -15.399144 0
M  V30 65 H 9.003399 5.925824 -6.220621 0
M  V30 66 H 9.117394 4.367067 -14.066847 0
M  V30 67 H 8.555039 2.784866 -13.539619 0
M  V30 END ATOM
M  V30 BEGIN BOND
M  V30 1 1 4 2
M  V30 2 1 8 2
M  V30 3 1 10 1
M  V30 4 2 10 3
M  V30 5 1 11 9
M  V30 6 1 13 11
M  V30 7 2 13 12
M  V30 8 1 14 8
M  V30 9 1 17 4
M  V30 10 1 18 8
M  V30 11 1 19 9
M  V30 12 1 19 16
M  V30 13 1 20 5
M  V30 14 2 20 11
M  V30 15 2 22 9
M  V30 16 1 23 16
M  V30 17 1 23 20
M  V30 18 1 24 6
M  V30 19 3 25 24
M  V30 20 1 26 14
M  V30 21 1 26 15
M  V30 22 1 27 7
M  V30 23 1 27 16
M  V30 24 1 28 10
M  V30 25 1 29 19
M  V30 26 1 30 3
M  V30 27 1 30 4
M  V30 28 2 30 21
M  V30 29 1 31 7
M  V30 30 2 31 18
M  V30 31 1 32 21
M  V30 32 2 32 28
M  V30 33 1 33 14
M  V30 34 1 33 27
M  V30 35 2 34 5
M  V30 36 1 34 6
M  V30 37 1 34 12
M  V30 38 1 35 1
M  V30 39 1 36 1
M  V30 40 1 37 1
M  V30 41 1 38 2
M  V30 42 1 39 2
M  V30 43 1 40 3
M  V30 44 1 4 41 CFG=1
M  V30 45 1 42 5
M  V30 46 1 43 6
M  V30 47 1 44 7
M  V30 48 1 45 7
M  V30 49 1 46 12
M  V30 50 1 47 13
M  V30 51 1 14 48 CFG=1
M  V30 52 1 49 15
M  V30 53 1 50 15
M  V30 54 1 51 15
M  V30 55 1 52 17
M  V30 56 1 53 17
M  V30 57 1 54 17
M  V30 58 1 55 18
M  V30 59 1 19 56 CFG=1
M  V30 60 1 57 21
M  V30 61 1 58 23
M  V30 62 1 59 23
M  V30 63 1 60 28
M  V30 64 1 61 29
M  V30 65 1 62 29
M  V30 66 1 63 29
M  V30 67 1 64 31
M  V30 68 1 65 32
M  V30 69 1 66 33
M  V30 70 1 67 33
M  V30 END BOND
M  V30 END CTAB
M  END
>  <i_epik_Tot_Q>  (1) 
0

>  <i_epik_Tot_abs_Q>  (1) 
0

>  <i_i_glide_confnum>  (1) 
66

>  <i_i_glide_lignum>  (1) 
80

>  <i_i_glide_posenum>  (1) 
122

>  <i_i_glide_rotatable_bonds>  (1) 
6

>  <i_lp_mmshare_version>  (1) 
72125

>  <i_m_source_file_index>  (1) 
52

>  <i_f3d_flags>  (1) 
0

>  <num_sample>  (1) 
100

>  <b_lp_Chiralities_Consistent>  (1) 
1

>  <r_epik_Charging_Adjusted_Penalty>  (1) 
7.4502254237452924e-08

>  <r_epik_Ionization_Penalty>  (1) 
0.00022335133816854321

>  <r_epik_Ionization_Penalty_Charging>  (1) 
7.4502254237452924e-08

>  <r_epik_Ionization_Penalty_Neutral>  (1) 
0.00022327683591430577

>  <r_epik_State_Penalty>  (1) 
-0

>  <r_glide_ring_energy>  (1) 
0

>  <r_i_docking_score>  (1) 
-5.0662610738697875

>  <r_i_glide_ecoul>  (1) 
-1.447072066473273

>  <r_i_glide_eff_state_penalty>  (1) 
-0

>  <r_i_glide_einternal>  (1) 
11.814341151721838

>  <r_i_glide_emodel>  (1) 
-45.844366853986912

>  <r_i_glide_emodel_strain>  (1) 
1.2796396986092304

>  <r_i_glide_energy>  (1) 
-41.649073912518041

>  <r_i_glide_erotb>  (1) 
0.47630443723403276

>  <r_i_glide_esite>  (1) 
-0.079215282903599152

>  <r_i_glide_evdw>  (1) 
-40.202001846044766

>  <r_i_glide_gscore>  (1) 
-5.0662610738697875

>  <r_i_glide_gscore_strain>  (1) 
0

>  <r_i_glide_hbond>  (1) 
-0.089313812255812794

>  <r_i_glide_ligand_efficiency>  (1) 
-0.14900767864322906

>  <r_i_glide_ligand_efficiency_ln>  (1) 
-1.1192791750275812

>  <r_i_glide_ligand_efficiency_sa>  (1) 
-0.48272703421356772

>  <r_i_glide_lipo>  (1) 
-1.6601387604152114

>  <r_i_glide_metal>  (1) 
-0

>  <r_i_glide_rewards>  (1) 
-1.4867367532559679

>  <r_lp_Energy>  (1) 
38.248024999999998

>  <r_lp_tautomer_probability>  (1) 
1

>  <s_epik_Chemistry_Notes>  (1) 
This compound has an imine and may undergo hydrolysis. This compound contains an acetal/aminal-like group ( X-CH(R)-Y where X, Y are N, S, or O) that may be acid/base labile, releasing an aldehyde.

>  <s_epik_cmdline>  (1) 
J2VwaWtfcHl0aG9uJywgJy1waHQnLCAnMS4wJywgJy1waCcsICc3LjQnLCAnLXRuJywgJzgnLCAnLW1hJywgJzUwMCcsICctaW1hZScsICc8aW5maWxlLm1hZT4nLCAnLW9tYWUnLCAnPG91dGZpbGUubWFlPic=

>  <s_epik_input>  (1) 
W0NIM11jMVtjSF1jKFtjSF1bY0hdW2NIXTEpW0NASF0oW0NIM10pW0NIMl1OMltDQEBIXShPW0NIM10pW0NIMl1OKFtDSDJdW0NIXT1bQ0hdMilOKFtDQEBIXShDMz1PKVtDSDNdKVtDSDJdYyhjMzQpW2NIXWMoW05IXUMjTilbY0hdW2NIXTQ=

>  <s_glide_docking_method>  (1) 
confgen

>  <s_i_glide_gridfile>  (1) 
gpcr_drd2_6luq_protein_autoprepared_prepared

>  <s_lp_Force_Field>  (1) 
S-OPLS

>  <s_lp_Variant>  (1) 
DiffSBDD_51-1

>  <s_m_source_file>  (1) 
generated_generic_title2_ligand_DiffSBDD_2026-06-23_prepared.sdf

>  <GenAI_Model>  (1) 
DiffSBDD

>  <Protein>  (1) 
generic_title2

$$$$
DiffSBDD_78
     RDKit          3D

  0  0  0  0  0  0  0  0  0  0999 V3000
M  V30 BEGIN CTAB
M  V30 COUNTS 80 84 0 0 1
M  V30 BEGIN ATOM
M  V30 1 C 9.708515 8.381478 -7.662089 0 CFG=2
M  V30 2 C 11.192115 8.805357 -7.721687 0
M  V30 3 C 6.159033 3.205576 -13.621870 0 CFG=1
M  V30 4 C 7.475538 4.316738 -15.925025 0 CFG=2
M  V30 5 C 9.325630 7.920217 -6.265339 0
M  V30 6 N 9.260268 4.556076 -17.629505 0
M  V30 7 C 8.175202 3.243397 -15.061416 0 CFG=1
M  V30 8 C 7.980246 4.930357 -13.150659 0 CFG=1
M  V30 9 N 9.376106 7.242378 -8.538485 0 CFG=2 CHG=1
M  V30 10 C 9.590473 6.005695 -7.764192 0
M  V30 11 N 8.566122 6.309640 -13.184462 0 CFG=1 CHG=1
M  V30 12 C 5.380337 5.482081 -13.052406 0
M  V30 13 C 8.406052 5.278217 -16.689527 0
M  V30 14 C 9.528815 6.081848 -19.571351 0
M  V30 15 O 6.575140 5.073230 -15.093260 0
M  V30 16 C 7.668467 7.489692 -13.131150 0
M  V30 17 C 10.570627 6.894305 -20.364835 0 CFG=1
M  V30 18 C 6.944416 2.048844 -13.023858 0
M  V30 19 C 6.530266 4.705819 -13.700843 0 CFG=2
M  V30 20 F 11.030374 7.873644 -19.585015 0
M  V30 21 C 9.350100 6.390801 -6.308117 0
M  V30 22 C 5.286719 5.286284 -11.527235 0
M  V30 23 O 11.233743 4.560444 -18.850625 0
M  V30 24 C 8.937215 3.990227 -13.922318 0
M  V30 25 C 11.757197 5.990214 -20.740395 0 CFG=1
M  V30 26 C 9.327699 6.273412 -10.799277 0
M  V30 27 C 10.209860 5.376669 -18.374207 0 CFG=2
M  V30 28 C 10.003497 7.273478 -9.873953 0
M  V30 29 C 9.725204 6.466563 -12.269552 0
M  V30 30 C 9.953037 7.579360 -21.594737 0
M  V30 31 C 12.291919 5.257664 -19.499461 0
M  V30 32 C 7.070392 2.377237 -14.485475 0 CFG=1
M  V30 33 F 11.392513 5.086024 -21.652049 0
M  V30 34 H 9.065806 9.205539 -7.960833 0
M  V30 35 H 11.398665 9.588519 -6.991931 0
M  V30 36 H 11.860814 7.972450 -7.503131 0
M  V30 37 H 11.463451 9.210647 -8.696184 0
M  V30 38 H 5.092391 2.998610 -13.584903 0
M  V30 39 H 6.878616 3.803109 -16.675530 0
M  V30 40 H 8.318637 8.271870 -6.036171 0
M  V30 41 H 9.991399 8.318691 -5.501348 0
M  V30 42 H 9.774187 3.830487 -17.140457 0
M  V30 43 H 8.814876 2.619775 -15.684346 0
M  V30 44 H 7.953868 4.588073 -12.118421 0
M  V30 45 H 8.920173 5.209607 -8.091831 0
M  V30 46 H 10.615286 5.652773 -7.889738 0
M  V30 47 H 5.375412 6.538999 -13.286605 0
M  V30 48 H 4.499666 5.132403 -13.584957 0
M  V30 49 H 9.014113 5.859075 -15.998057 0
M  V30 50 H 7.787646 5.992183 -17.232826 0
M  V30 51 H 9.067237 5.323907 -20.205719 0
M  V30 52 H 8.735211 6.735067 -19.207325 0
M  V30 53 H 7.040536 7.500777 -12.240172 0
M  V30 54 H 8.235253 8.416895 -13.108805 0
M  V30 55 H 7.061397 7.549036 -14.034177 0
M  V30 56 H 7.796009 2.230681 -12.385105 0
M  V30 57 H 6.390808 1.144770 -12.777492 0
M  V30 58 H 8.388590 5.991802 -5.985023 0
M  V30 59 H 10.125868 5.989599 -5.654998 0
M  V30 60 H 4.566139 5.968509 -11.084574 0
M  V30 61 H 4.998825 4.268131 -11.270123 0
M  V30 62 H 6.225150 5.497732 -11.022284 0
M  V30 63 H 9.388238 3.316741 -13.185922 0
M  V30 64 H 9.775904 4.530891 -14.359068 0
M  V30 65 H 12.554015 6.574886 -21.201179 0
M  V30 66 H 8.252381 6.389780 -10.675133 0
M  V30 67 H 9.552298 5.251664 -10.490264 0
M  V30 68 H 10.663436 6.103291 -17.697185 0
M  V30 69 H 11.076786 7.086799 -9.821167 0
M  V30 70 H 9.867992 8.278191 -10.279189 0
M  V30 71 H 10.516397 5.761923 -12.528284 0
M  V30 72 H 10.164936 7.452779 -12.424763 0
M  V30 73 H 9.513789 6.851088 -22.277214 0
M  V30 74 H 9.167547 8.277845 -21.305277 0
M  V30 75 H 10.703436 8.142366 -22.150799 0
M  V30 76 H 12.754446 5.958726 -18.802334 0
M  V30 77 H 13.063569 4.542534 -19.785248 0
M  V30 78 H 6.580457 1.715615 -15.198877 0
M  V30 79 H 8.368155 7.326725 -8.701851 0
M  V30 80 H 8.958658 6.373196 -14.112758 0
M  V30 END ATOM
M  V30 BEGIN BOND
M  V30 1 1 2 1
M  V30 2 1 5 1
M  V30 3 1 7 4
M  V30 4 1 9 1
M  V30 5 1 10 9
M  V30 6 1 11 8
M  V30 7 1 13 4
M  V30 8 1 13 6
M  V30 9 1 15 4
M  V30 10 1 16 11
M  V30 11 1 17 14
M  V30 12 1 18 3
M  V30 13 1 19 3
M  V30 14 1 19 8
M  V30 15 1 19 12 CFG=1
M  V30 16 1 19 15
M  V30 17 1 17 20 CFG=1
M  V30 18 1 21 5
M  V30 19 1 21 10
M  V30 20 1 22 12
M  V30 21 1 24 7
M  V30 22 1 24 8
M  V30 23 1 25 17
M  V30 24 1 27 6
M  V30 25 1 27 14
M  V30 26 1 27 23
M  V30 27 1 28 9
M  V30 28 1 28 26
M  V30 29 1 29 11
M  V30 30 1 29 26
M  V30 31 1 30 17
M  V30 32 1 31 23
M  V30 33 1 31 25
M  V30 34 1 32 3
M  V30 35 1 32 7
M  V30 36 1 32 18
M  V30 37 1 33 25
M  V30 38 1 1 34 CFG=3
M  V30 39 1 35 2
M  V30 40 1 36 2
M  V30 41 1 37 2
M  V30 42 1 3 38 CFG=3
M  V30 43 1 4 39 CFG=3
M  V30 44 1 40 5
M  V30 45 1 41 5
M  V30 46 1 42 6
M  V30 47 1 7 43 CFG=3
M  V30 48 1 8 44 CFG=1
M  V30 49 1 45 10
M  V30 50 1 46 10
M  V30 51 1 47 12
M  V30 52 1 48 12
M  V30 53 1 49 13
M  V30 54 1 50 13
M  V30 55 1 51 14
M  V30 56 1 52 14
M  V30 57 1 53 16
M  V30 58 1 54 16
M  V30 59 1 55 16
M  V30 60 1 56 18
M  V30 61 1 57 18
M  V30 62 1 58 21
M  V30 63 1 59 21
M  V30 64 1 60 22
M  V30 65 1 61 22
M  V30 66 1 62 22
M  V30 67 1 63 24
M  V30 68 1 64 24
M  V30 69 1 25 65 CFG=3
M  V30 70 1 66 26
M  V30 71 1 67 26
M  V30 72 1 27 68 CFG=1
M  V30 73 1 69 28
M  V30 74 1 70 28
M  V30 75 1 71 29
M  V30 76 1 72 29
M  V30 77 1 73 30
M  V30 78 1 74 30
M  V30 79 1 75 30
M  V30 80 1 76 31
M  V30 81 1 77 31
M  V30 82 1 32 78 CFG=3
M  V30 83 1 9 79 CFG=3
M  V30 84 1 11 80 CFG=3
M  V30 END BOND
M  V30 END CTAB
M  END
>  <i_epik_Tot_Q>  (1) 
2

>  <i_epik_Tot_abs_Q>  (1) 
2

>  <i_i_glide_confnum>  (1) 
214

>  <i_i_glide_lignum>  (1) 
131

>  <i_i_glide_posenum>  (1) 
254

>  <i_i_glide_rotatable_bonds>  (1) 
9

>  <i_lp_mmshare_version>  (1) 
72125

>  <i_m_source_file_index>  (1) 
79

>  <i_f3d_flags>  (1) 
0

>  <num_sample>  (1) 
100

>  <b_lp_Chiralities_Consistent>  (1) 
1

>  <r_epik_Charging_Adjusted_Penalty>  (1) 
0.22182564166484353

>  <r_epik_Ionization_Penalty>  (1) 
0.22182564166592098

>  <r_epik_Ionization_Penalty_Charging>  (1) 
0.060182310347739972

>  <r_epik_Ionization_Penalty_Neutral>  (1) 
0.16164333131818101

>  <r_epik_State_Penalty>  (1) 
0.16164333131710357

>  <r_glide_ring_energy>  (1) 
0

>  <r_i_docking_score>  (1) 
-5.0636323772852574

>  <r_i_glide_ecoul>  (1) 
-5.9567247382535715

>  <r_i_glide_eff_state_penalty>  (1) 
0.16164333131710357

>  <r_i_glide_einternal>  (1) 
7.1237826095405801

>  <r_i_glide_emodel>  (1) 
-39.425420265214051

>  <r_i_glide_emodel_strain>  (1) 
1.1515413036959785

>  <r_i_glide_energy>  (1) 
-32.370610251736643

>  <r_i_glide_erotb>  (1) 
0.50880729737642771

>  <r_i_glide_esite>  (1) 
-0.10000000000000001

>  <r_i_glide_evdw>  (1) 
-26.413885513483073

>  <r_i_glide_gscore>  (1) 
-5.2252757086023607

>  <r_i_glide_gscore_strain>  (1) 
0

>  <r_i_glide_hbond>  (1) 
-0.20000000000000001

>  <r_i_glide_ligand_efficiency>  (1) 
-0.15344340537228052

>  <r_i_glide_ligand_efficiency_ln>  (1) 
-1.1261256226229535

>  <r_i_glide_ligand_efficiency_sa>  (1) 
-0.49217499044305585

>  <r_i_glide_lipo>  (1) 
-1.4601716007761252

>  <r_i_glide_metal>  (1) 
-0

>  <r_i_glide_rewards>  (1) 
-1.7597084187904726

>  <r_lp_Energy>  (1) 
71.261048000000002

>  <s_epik_Chemistry_Notes>  (1) 
This compound contains an acetal/aminal-like group ( X-CH(R)-Y where X, Y are N, S, or O) that may be acid/base labile, releasing an aldehyde.

>  <s_epik_cmdline>  (1) 
J2VwaWtfcHl0aG9uJywgJy1waHQnLCAnMS4wJywgJy1waCcsICc3LjQnLCAnLXRuJywgJzgnLCAnLW1hJywgJzUwMCcsICctaW1hZScsICc8aW5maWxlLm1hZT4nLCAnLW9tYWUnLCAnPG91dGZpbGUubWFlPic=

>  <s_epik_input>  (1) 
W0NIM11bQ0BASF0xW0NIMl1bQ0gyXVtDSDJdTjFbQ0gyXVtDSDJdW0NIMl1OKFtDSDNdKVtDQEBIXTJbQ0gyXVtDQEBIXShbQ0BASF0oW0NIMl0zKVtDQEBIXTNbQ0BAXTI0W0NIMl1bQ0gzXSlbQ0BASF0oTzQpW0NIMl1bTkhdW0NASF0oW0NIMl1bQ0BdNShGKVtDSDNdKU9bQ0gyXVtDQEhdNUY=

>  <s_glide_docking_method>  (1) 
confgen

>  <s_i_glide_gridfile>  (1) 
gpcr_drd2_6luq_protein_autoprepared_prepared

>  <s_lp_Force_Field>  (1) 
S-OPLS

>  <s_lp_Variant>  (1) 
DiffSBDD_78-3

>  <s_m_source_file>  (1) 
generated_generic_title2_ligand_DiffSBDD_2026-06-23_prepared.sdf

>  <GenAI_Model>  (1) 
DiffSBDD

>  <Protein>  (1) 
generic_title2

$$$$
DiffSBDD_84
     RDKit          3D

  0  0  0  0  0  0  0  0  0  0999 V3000
M  V30 BEGIN CTAB
M  V30 COUNTS 42 43 0 0 1
M  V30 BEGIN ATOM
M  V30 1 C 11.800587 8.841856 -4.033679 0
M  V30 2 C 7.143927 6.275520 -12.944126 0
M  V30 3 C 11.775411 7.432965 -3.941197 0
M  V30 4 C 9.114027 5.703113 -10.178025 0
M  V30 5 O 9.775412 6.704701 -10.457464 0
M  V30 6 C 8.176435 5.059140 -14.794878 0
M  V30 7 N 8.799442 4.761266 -11.079962 0
M  V30 8 C 6.175096 6.790224 -13.825542 0
M  V30 9 C 6.204648 6.441683 -15.189054 0
M  V30 10 C 11.431598 9.475856 -5.236703 0
M  V30 11 C 12.169085 6.745153 -2.648027 0
M  V30 12 C 7.204736 5.577137 -15.673687 0
M  V30 13 O 12.175417 9.590227 -2.959050 0
M  V30 14 C 9.206795 4.839872 -12.482112 0
M  V30 15 C 11.014171 7.297622 -6.255229 0
M  V30 16 C 11.375410 6.665512 -5.050537 0
M  V30 17 C 8.149344 5.404599 -13.427417 0
M  V30 18 C 8.603365 5.476848 -8.749300 0
M  V30 19 C 10.608105 6.464526 -7.451740 0
M  V30 20 C 11.040693 8.704290 -6.348135 0
M  V30 21 C 9.094596 6.494921 -7.700440 0
M  V30 22 H 7.115379 6.549873 -11.899497 0
M  V30 23 H 8.943075 4.396656 -15.169591 0
M  V30 24 H 8.253916 3.963589 -10.790193 0
M  V30 25 H 5.407716 7.454293 -13.454512 0
M  V30 26 H 5.460391 6.838369 -15.863761 0
M  V30 27 H 11.449903 10.553591 -5.307378 0
M  V30 28 H 12.110419 5.660497 -2.740015 0
M  V30 29 H 13.193001 7.003261 -2.385026 0
M  V30 30 H 11.507314 7.049003 -1.836690 0
M  V30 31 H 7.227228 5.311153 -16.720215 0
M  V30 32 H 12.453355 9.080706 -2.213835 0
M  V30 33 H 10.129404 5.410604 -12.603263 0
M  V30 34 H 9.447889 3.824856 -12.799439 0
M  V30 35 H 11.354186 5.590228 -4.980303 0
M  V30 36 H 8.871620 4.469127 -8.431234 0
M  V30 37 H 7.513981 5.510483 -8.785025 0
M  V30 38 H 11.154020 6.833171 -8.319642 0
M  V30 39 H 10.941670 5.438189 -7.302892 0
M  V30 40 H 10.762566 9.190085 -7.271714 0
M  V30 41 H 8.575399 6.286786 -6.764056 0
M  V30 42 H 8.797312 7.503839 -7.985025 0
M  V30 END ATOM
M  V30 BEGIN BOND
M  V30 1 2 3 1
M  V30 2 2 5 4
M  V30 3 1 7 4
M  V30 4 1 8 2
M  V30 5 2 9 8
M  V30 6 1 10 1
M  V30 7 1 11 3
M  V30 8 2 12 6
M  V30 9 1 12 9
M  V30 10 1 13 1
M  V30 11 1 14 7
M  V30 12 1 16 3
M  V30 13 2 16 15
M  V30 14 2 17 2
M  V30 15 1 17 6
M  V30 16 1 17 14
M  V30 17 1 18 4
M  V30 18 1 19 15
M  V30 19 2 20 10
M  V30 20 1 20 15
M  V30 21 1 21 18
M  V30 22 1 21 19
M  V30 23 1 22 2
M  V30 24 1 23 6
M  V30 25 1 24 7
M  V30 26 1 25 8
M  V30 27 1 26 9
M  V30 28 1 27 10
M  V30 29 1 28 11
M  V30 30 1 29 11
M  V30 31 1 30 11
M  V30 32 1 31 12
M  V30 33 1 32 13
M  V30 34 1 33 14
M  V30 35 1 34 14
M  V30 36 1 35 16
M  V30 37 1 36 18
M  V30 38 1 37 18
M  V30 39 1 38 19
M  V30 40 1 39 19
M  V30 41 1 40 20
M  V30 42 1 41 21
M  V30 43 1 42 21
M  V30 END BOND
M  V30 END CTAB
M  END
>  <i_epik_Tot_Q>  (1) 
0

>  <i_epik_Tot_abs_Q>  (1) 
0

>  <i_i_glide_confnum>  (1) 
56

>  <i_i_glide_lignum>  (1) 
152

>  <i_i_glide_posenum>  (1) 
191

>  <i_i_glide_rotatable_bonds>  (1) 
8

>  <i_lp_mmshare_version>  (1) 
72125

>  <i_m_source_file_index>  (1) 
85

>  <i_f3d_flags>  (1) 
0

>  <num_sample>  (1) 
100

>  <b_lp_Chiralities_Consistent>  (1) 
1

>  <r_epik_Charging_Adjusted_Penalty>  (1) 
0

>  <r_epik_Ionization_Penalty>  (1) 
0.0004542944529878683

>  <r_epik_Ionization_Penalty_Charging>  (1) 
0

>  <r_epik_Ionization_Penalty_Neutral>  (1) 
0.0004542944529878683

>  <r_epik_State_Penalty>  (1) 
-0

>  <r_glide_ring_energy>  (1) 
0

>  <r_i_docking_score>  (1) 
-5.059637160491369

>  <r_i_glide_ecoul>  (1) 
-2.9656461190150045

>  <r_i_glide_eff_state_penalty>  (1) 
-0

>  <r_i_glide_einternal>  (1) 
1.2732606696027975

>  <r_i_glide_emodel>  (1) 
-51.459029721071204

>  <r_i_glide_emodel_strain>  (1) 
0

>  <r_i_glide_energy>  (1) 
-39.667491502550185

>  <r_i_glide_erotb>  (1) 
2.7062369522687115

>  <r_i_glide_esite>  (1) 
-0.063676329754922698

>  <r_i_glide_evdw>  (1) 
-36.701845383535179

>  <r_i_glide_gscore>  (1) 
-5.059637160491369

>  <r_i_glide_gscore_strain>  (1) 
0

>  <r_i_glide_hbond>  (1) 
0

>  <r_i_glide_ligand_efficiency>  (1) 
-0.24093510288054137

>  <r_i_glide_ligand_efficiency_ln>  (1) 
-1.2509850639719367

>  <r_i_glide_ligand_efficiency_sa>  (1) 
-0.66472168027599832

>  <r_i_glide_lipo>  (1) 
-3.0813865264112188

>  <r_i_glide_metal>  (1) 
-0

>  <r_i_glide_rewards>  (1) 
-2.340872069564929

>  <r_lp_Energy>  (1) 
14.408657

>  <r_lp_tautomer_probability>  (1) 
1

>  <s_epik_cmdline>  (1) 
J2VwaWtfcHl0aG9uJywgJy1waHQnLCAnMS4wJywgJy1waCcsICc3LjQnLCAnLXRuJywgJzgnLCAnLW1hJywgJzUwMCcsICctaW1hZScsICc8aW5maWxlLm1hZT4nLCAnLW9tYWUnLCAnPG91dGZpbGUubWFlPic=

>  <s_epik_input>  (1) 
W09IXWMxYyhbQ0gzXSlbY0hdYyhbY0hdW2NIXTEpW0NIMl1bQ0gyXVtDSDJdQyg9TylbTkhdW0NIMl1jMltjSF1bY0hdW2NIXVtjSF1bY0hdMg==

>  <s_glide_docking_method>  (1) 
confgen

>  <s_i_glide_gridfile>  (1) 
gpcr_drd2_6luq_protein_autoprepared_prepared

>  <s_lp_Force_Field>  (1) 
S-OPLS

>  <s_lp_Variant>  (1) 
DiffSBDD_84-1

>  <s_m_source_file>  (1) 
generated_generic_title2_ligand_DiffSBDD_2026-06-23_prepared.sdf

>  <GenAI_Model>  (1) 
DiffSBDD

>  <Protein>  (1) 
generic_title2

$$$$
DiffSBDD_78
     RDKit          3D

  0  0  0  0  0  0  0  0  0  0999 V3000
M  V30 BEGIN CTAB
M  V30 COUNTS 80 84 0 0 1
M  V30 BEGIN ATOM
M  V30 1 C 10.189373 6.276588 -7.852937 0 CFG=2
M  V30 2 C 8.721004 5.826757 -7.795417 0
M  V30 3 C 5.942745 4.427864 -12.779011 0 CFG=1
M  V30 4 C 7.243372 3.013736 -14.735051 0 CFG=2
M  V30 5 C 10.800013 6.424890 -6.445553 0
M  V30 6 N 7.512605 2.390465 -17.142493 0
M  V30 7 C 7.464206 2.547752 -13.263265 0 CFG=1
M  V30 8 C 8.437287 4.820731 -12.698174 0 CFG=1
M  V30 9 N 10.332403 7.601745 -8.520790 0 CFG=1 CHG=1
M  V30 10 C 11.240439 8.402888 -7.670706 0
M  V30 11 N 9.718796 5.502815 -13.075965 0 CFG=1 CHG=1
M  V30 12 C 6.842330 6.628513 -13.712656 0
M  V30 13 C 8.164120 2.436716 -15.830595 0
M  V30 14 C 7.560284 -0.042899 -17.648505 0
M  V30 15 O 7.276278 4.455375 -14.773347 0
M  V30 16 C 10.030701 5.508293 -14.527624 0
M  V30 17 C 6.683724 -1.233164 -18.073409 0 CFG=1
M  V30 18 C 5.967129 3.859170 -11.369648 0
M  V30 19 C 7.125702 5.122482 -13.502613 0 CFG=2
M  V30 20 F 5.812541 -1.488033 -17.094611 0
M  V30 21 C 10.973724 7.925088 -6.251896 0
M  V30 22 C 5.851885 6.913848 -14.848289 0
M  V30 23 O 6.016557 1.478694 -18.667915 0
M  V30 24 C 8.660454 3.293919 -12.639763 0
M  V30 25 C 5.891724 -0.860857 -19.336494 0 CFG=1
M  V30 26 C 9.816812 6.722150 -10.834069 0
M  V30 27 C 6.686882 1.223962 -17.468050 0 CFG=2
M  V30 28 C 10.735461 7.591772 -9.956773 0
M  V30 29 C 10.069331 6.770844 -12.360496 0
M  V30 30 C 7.517529 -2.510181 -18.266348 0
M  V30 31 C 5.130353 0.453542 -19.114622 0
M  V30 32 C 6.176400 2.943764 -12.565165 0 CFG=1
M  V30 33 F 6.704941 -0.723992 -20.386371 0
M  V30 34 H 10.768202 5.525682 -8.385896 0
M  V30 35 H 8.648565 4.762168 -7.585135 0
M  V30 36 H 8.175507 6.362263 -7.018058 0
M  V30 37 H 8.190938 5.988550 -8.732250 0
M  V30 38 H 4.964438 4.676385 -13.180736 0
M  V30 39 H 6.231772 2.708700 -14.994582 0
M  V30 40 H 11.773289 5.932236 -6.411433 0
M  V30 41 H 10.186392 5.990319 -5.656564 0
M  V30 42 H 6.961369 3.233382 -17.269932 0
M  V30 43 H 7.591907 1.466197 -13.197814 0
M  V30 44 H 8.207866 5.130901 -11.690230 0
M  V30 45 H 12.277642 8.182279 -7.930473 0
M  V30 46 H 11.103689 9.474286 -7.782888 0
M  V30 47 H 6.473588 7.058524 -12.780199 0
M  V30 48 H 7.748864 7.174984 -13.953282 0
M  V30 49 H 8.531466 1.454656 -15.538116 0
M  V30 50 H 9.031894 3.072159 -15.957877 0
M  V30 51 H 8.325586 0.162366 -18.398858 0
M  V30 52 H 8.068712 -0.280921 -16.714828 0
M  V30 53 H 9.264683 5.988722 -15.136675 0
M  V30 54 H 10.988430 5.990215 -14.721201 0
M  V30 55 H 10.139509 4.493574 -14.892953 0
M  V30 56 H 6.801664 4.008885 -10.692159 0
M  V30 57 H 5.011165 3.804473 -10.854155 0
M  V30 58 H 11.773689 8.177268 -5.555527 0
M  V30 59 H 10.046105 8.361818 -5.876379 0
M  V30 60 H 5.524412 7.953691 -14.836151 0
M  V30 61 H 6.306141 6.719743 -15.820684 0
M  V30 62 H 4.975306 6.279165 -14.772996 0
M  V30 63 H 8.867042 2.978958 -11.616215 0
M  V30 64 H 9.548050 3.029399 -13.184929 0
M  V30 65 H 5.193519 -1.655962 -19.600125 0
M  V30 66 H 8.781703 7.016580 -10.657282 0
M  V30 67 H 9.915269 5.692960 -10.492696 0
M  V30 68 H 5.935111 1.075408 -16.690221 0
M  V30 69 H 11.764248 7.239407 -10.041424 0
M  V30 70 H 10.724741 8.619610 -10.320447 0
M  V30 71 H 11.129276 6.956085 -12.540040 0
M  V30 72 H 9.539391 7.622223 -12.784314 0
M  V30 73 H 8.256969 -2.386257 -19.058194 0
M  V30 74 H 8.052698 -2.771987 -17.352522 0
M  V30 75 H 6.884285 -3.357852 -18.530435 0
M  V30 76 H 4.335715 0.304118 -18.385573 0
M  V30 77 H 4.649471 0.775347 -20.038728 0
M  V30 78 H 5.375407 2.261042 -12.801609 0
M  V30 79 H 9.414989 8.027360 -8.466548 0
M  V30 80 H 10.419057 4.861645 -12.724179 0
M  V30 END ATOM
M  V30 BEGIN BOND
M  V30 1 1 2 1
M  V30 2 1 5 1
M  V30 3 1 7 4
M  V30 4 1 9 1
M  V30 5 1 10 9
M  V30 6 1 11 8
M  V30 7 1 13 4
M  V30 8 1 13 6
M  V30 9 1 15 4
M  V30 10 1 16 11
M  V30 11 1 17 14
M  V30 12 1 18 3
M  V30 13 1 19 3
M  V30 14 1 19 8
M  V30 15 1 19 12 CFG=3
M  V30 16 1 19 15
M  V30 17 1 17 20 CFG=1
M  V30 18 1 21 5
M  V30 19 1 21 10
M  V30 20 1 22 12
M  V30 21 1 24 7
M  V30 22 1 24 8
M  V30 23 1 25 17
M  V30 24 1 27 6
M  V30 25 1 27 14
M  V30 26 1 27 23
M  V30 27 1 28 9
M  V30 28 1 28 26
M  V30 29 1 29 11
M  V30 30 1 29 26
M  V30 31 1 30 17
M  V30 32 1 31 23
M  V30 33 1 31 25
M  V30 34 1 32 3
M  V30 35 1 32 7
M  V30 36 1 32 18
M  V30 37 1 33 25
M  V30 38 1 1 34 CFG=3
M  V30 39 1 35 2
M  V30 40 1 36 2
M  V30 41 1 37 2
M  V30 42 1 3 38 CFG=3
M  V30 43 1 4 39 CFG=3
M  V30 44 1 40 5
M  V30 45 1 41 5
M  V30 46 1 42 6
M  V30 47 1 7 43 CFG=3
M  V30 48 1 8 44 CFG=1
M  V30 49 1 45 10
M  V30 50 1 46 10
M  V30 51 1 47 12
M  V30 52 1 48 12
M  V30 53 1 49 13
M  V30 54 1 50 13
M  V30 55 1 51 14
M  V30 56 1 52 14
M  V30 57 1 53 16
M  V30 58 1 54 16
M  V30 59 1 55 16
M  V30 60 1 56 18
M  V30 61 1 57 18
M  V30 62 1 58 21
M  V30 63 1 59 21
M  V30 64 1 60 22
M  V30 65 1 61 22
M  V30 66 1 62 22
M  V30 67 1 63 24
M  V30 68 1 64 24
M  V30 69 1 25 65 CFG=3
M  V30 70 1 66 26
M  V30 71 1 67 26
M  V30 72 1 27 68 CFG=1
M  V30 73 1 69 28
M  V30 74 1 70 28
M  V30 75 1 71 29
M  V30 76 1 72 29
M  V30 77 1 73 30
M  V30 78 1 74 30
M  V30 79 1 75 30
M  V30 80 1 76 31
M  V30 81 1 77 31
M  V30 82 1 32 78 CFG=3
M  V30 83 1 9 79 CFG=3
M  V30 84 1 11 80 CFG=1
M  V30 END BOND
M  V30 END CTAB
M  END
>  <i_epik_Tot_Q>  (1) 
2

>  <i_epik_Tot_abs_Q>  (1) 
2

>  <i_i_glide_confnum>  (1) 
174

>  <i_i_glide_lignum>  (1) 
132

>  <i_i_glide_posenum>  (1) 
343

>  <i_i_glide_rotatable_bonds>  (1) 
9

>  <i_lp_mmshare_version>  (1) 
72125

>  <i_m_source_file_index>  (1) 
79

>  <i_f3d_flags>  (1) 
0

>  <num_sample>  (1) 
100

>  <b_lp_Chiralities_Consistent>  (1) 
1

>  <r_epik_Charging_Adjusted_Penalty>  (1) 
0.22182564166484353

>  <r_epik_Ionization_Penalty>  (1) 
0.22182564166592098

>  <r_epik_Ionization_Penalty_Charging>  (1) 
0.060182310347739972

>  <r_epik_Ionization_Penalty_Neutral>  (1) 
0.16164333131818101

>  <r_epik_State_Penalty>  (1) 
0.16164333131710357

>  <r_glide_ring_energy>  (1) 
0

>  <r_i_docking_score>  (1) 
-5.0551819169766787

>  <r_i_glide_ecoul>  (1) 
-5.1081054612282015

>  <r_i_glide_eff_state_penalty>  (1) 
0.16164333131710357

>  <r_i_glide_einternal>  (1) 
8.5468176904415056

>  <r_i_glide_emodel>  (1) 
-38.269473760320444

>  <r_i_glide_emodel_strain>  (1) 
1.7476762412120337

>  <r_i_glide_energy>  (1) 
-31.446724689457394

>  <r_i_glide_erotb>  (1) 
0.726867567680611

>  <r_i_glide_esite>  (1) 
-0.0449601766203696

>  <r_i_glide_evdw>  (1) 
-26.338619228229192

>  <r_i_glide_gscore>  (1) 
-5.216825248293782

>  <r_i_glide_gscore_strain>  (1) 
0

>  <r_i_glide_hbond>  (1) 
0

>  <r_i_glide_ligand_efficiency>  (1) 
-0.15318733081747513

>  <r_i_glide_ligand_efficiency_ln>  (1) 
-1.1242462840044674

>  <r_i_glide_ligand_efficiency_sa>  (1) 
-0.49135362251747911

>  <r_i_glide_lipo>  (1) 
-2.5896268035077306

>  <r_i_glide_metal>  (1) 
-0

>  <r_i_glide_rewards>  (1) 
-1.2259590552506028

>  <r_lp_Energy>  (1) 
69.690649999999991

>  <s_epik_Chemistry_Notes>  (1) 
This compound contains an acetal/aminal-like group ( X-CH(R)-Y where X, Y are N, S, or O) that may be acid/base labile, releasing an aldehyde.

>  <s_epik_cmdline>  (1) 
J2VwaWtfcHl0aG9uJywgJy1waHQnLCAnMS4wJywgJy1waCcsICc3LjQnLCAnLXRuJywgJzgnLCAnLW1hJywgJzUwMCcsICctaW1hZScsICc8aW5maWxlLm1hZT4nLCAnLW9tYWUnLCAnPG91dGZpbGUubWFlPic=

>  <s_epik_input>  (1) 
W0NIM11bQ0BASF0xW0NIMl1bQ0gyXVtDSDJdTjFbQ0gyXVtDSDJdW0NIMl1OKFtDSDNdKVtDQEBIXTJbQ0gyXVtDQEBIXShbQ0BASF0oW0NIMl0zKVtDQEBIXTNbQ0BAXTI0W0NIMl1bQ0gzXSlbQ0BASF0oTzQpW0NIMl1bTkhdW0NASF0oW0NIMl1bQ0BdNShGKVtDSDNdKU9bQ0gyXVtDQEhdNUY=

>  <s_glide_docking_method>  (1) 
confgen

>  <s_i_glide_gridfile>  (1) 
gpcr_drd2_6luq_protein_autoprepared_prepared

>  <s_lp_Force_Field>  (1) 
S-OPLS

>  <s_lp_Variant>  (1) 
DiffSBDD_78-4

>  <s_m_source_file>  (1) 
generated_generic_title2_ligand_DiffSBDD_2026-06-23_prepared.sdf

>  <GenAI_Model>  (1) 
DiffSBDD

>  <Protein>  (1) 
generic_title2

$$$$
DiffSBDD_81
     RDKit          3D

  0  0  0  0  0  0  0  0  0  0999 V3000
M  V30 BEGIN CTAB
M  V30 COUNTS 68 71 0 0 1
M  V30 BEGIN ATOM
M  V30 1 C 6.883296 5.392804 -14.136525 0 CFG=1
M  V30 2 C 9.961957 6.441577 -7.503257 0
M  V30 3 O 11.775420 7.403905 -3.714560 0
M  V30 4 C 11.346459 7.004286 -4.999159 0
M  V30 5 C 7.567474 5.159248 -16.716734 0
M  V30 6 C 8.095932 5.763353 -18.933011 0
M  V30 7 C 8.465622 5.029537 -17.762763 0
M  V30 8 C 7.685385 6.688429 -13.884103 0
M  V30 9 O 10.975412 10.094795 -4.410230 0
M  V30 10 O 7.120834 3.224586 -15.331981 0
M  V30 11 C 6.670524 5.138400 -11.468361 0 CFG=2
M  V30 12 C 8.202509 6.063692 -21.335945 0
M  V30 13 C 4.983755 6.709393 -16.443324 0 CFG=1
M  V30 14 C 6.843229 4.484635 -12.863691 0
M  V30 15 C 6.056301 6.523336 -17.625472 0
M  V30 16 O 12.775694 9.590228 -5.771169 0
M  V30 17 N 5.470047 5.726706 -14.395558 0
M  V30 18 C 11.914031 7.903427 -8.077954 0
M  V30 19 C 6.499690 5.965483 -17.004389 0
M  V30 20 C 10.750779 8.155177 -5.882012 0 CFG=1
M  V30 21 O 5.375419 6.997533 -15.110305 0
M  V30 22 C 7.563734 4.567412 -15.309767 0 CFG=2
M  V30 23 C 8.000848 5.726610 -10.930425 0
M  V30 24 C 6.844856 6.540955 -18.861423 0
M  V30 25 C 9.657471 6.008428 -8.931394 0 CFG=2
M  V30 26 C 8.303371 5.546375 -9.450421 0 CFG=2
M  V30 27 O 6.175415 4.119246 -10.622397 0
M  V30 28 O 9.588076 4.536953 -20.278215 0
M  V30 29 C 9.336770 4.540906 -9.058888 0
M  V30 30 C 11.371941 9.581617 -5.656550 0
M  V30 31 N 8.899421 5.746349 -20.094213 0
M  V30 32 N 10.630958 7.767899 -7.332234 0 CFG=2 CHG=1
M  V30 33 H 9.029580 6.424213 -6.935201 0
M  V30 34 H 10.603595 5.665778 -7.083553 0
M  V30 35 H 12.190629 8.253825 -3.785614 0
M  V30 36 H 10.594373 6.230000 -4.840875 0
M  V30 37 H 12.175408 6.496354 -5.487632 0
M  V30 38 H 9.361605 4.430567 -17.698629 0
M  V30 39 H 8.693285 6.453328 -13.546212 0
M  V30 40 H 7.775406 7.290752 -14.785026 0
M  V30 41 H 7.210514 7.328485 -13.140501 0
M  V30 42 H 10.933392 11.038885 -4.457937 0
M  V30 43 H 7.646213 2.746495 -15.954534 0
M  V30 44 H 5.906088 5.916181 -11.498106 0
M  V30 45 H 7.990180 7.131389 -21.393043 0
M  V30 46 H 8.819649 5.814747 -22.201556 0
M  V30 47 H 7.264919 5.512669 -21.425130 0
M  V30 48 H 4.169615 5.990344 -16.516632 0
M  V30 49 H 6.042419 3.753974 -13.002823 0
M  V30 50 H 7.747059 3.874036 -12.826407 0
M  V30 51 H 13.082290 10.481723 -5.843340 0
M  V30 52 H 5.009903 5.900837 -13.513398 0
M  V30 53 H 12.714781 7.355568 -7.585017 0
M  V30 54 H 11.874895 7.563817 -9.107891 0
M  V30 55 H 12.213657 8.948219 -8.151393 0
M  V30 56 H 9.707422 8.255681 -5.584987 0
M  V30 57 H 8.621011 4.490312 -15.050781 0
M  V30 58 H 8.841322 5.309261 -11.485621 0
M  V30 59 H 8.032527 6.792853 -11.145751 0
M  V30 60 H 6.508320 7.121462 -19.706595 0
M  V30 61 H 10.315869 6.390204 -9.702533 0
M  V30 62 H 7.448914 5.619988 -8.782410 0
M  V30 63 H 5.934471 4.499066 -9.785115 0
M  V30 64 H 8.921824 3.873893 -20.381486 0
M  V30 65 H 9.155873 3.990227 -8.138926 0
M  V30 66 H 9.775419 3.970363 -9.871101 0
M  V30 67 H 10.968694 10.277364 -6.385028 0
M  V30 68 H 9.994366 8.431753 -7.751391 0
M  V30 END ATOM
M  V30 BEGIN BOND
M  V30 1 1 4 3
M  V30 2 2 7 5
M  V30 3 1 7 6
M  V30 4 1 1 8 CFG=1
M  V30 5 1 14 1
M  V30 6 1 14 11
M  V30 7 1 15 13
M  V30 8 1 17 1
M  V30 9 1 19 5
M  V30 10 1 19 13
M  V30 11 2 19 15
M  V30 12 1 20 4
M  V30 13 1 21 13
M  V30 14 1 21 17
M  V30 15 1 22 1
M  V30 16 1 22 5
M  V30 17 1 22 10
M  V30 18 1 23 11
M  V30 19 2 24 6
M  V30 20 1 24 15
M  V30 21 1 25 2
M  V30 22 1 26 23
M  V30 23 1 26 25
M  V30 24 1 27 11
M  V30 25 1 29 25
M  V30 26 1 29 26
M  V30 27 1 30 9
M  V30 28 1 30 16
M  V30 29 1 30 20
M  V30 30 1 31 6
M  V30 31 1 31 12
M  V30 32 1 31 28
M  V30 33 1 32 2
M  V30 34 1 32 18
M  V30 35 1 32 20
M  V30 36 1 33 2
M  V30 37 1 34 2
M  V30 38 1 35 3
M  V30 39 1 36 4
M  V30 40 1 37 4
M  V30 41 1 38 7
M  V30 42 1 39 8
M  V30 43 1 40 8
M  V30 44 1 41 8
M  V30 45 1 42 9
M  V30 46 1 43 10
M  V30 47 1 11 44 CFG=3
M  V30 48 1 45 12
M  V30 49 1 46 12
M  V30 50 1 47 12
M  V30 51 1 13 48 CFG=3
M  V30 52 1 49 14
M  V30 53 1 50 14
M  V30 54 1 51 16
M  V30 55 1 52 17
M  V30 56 1 53 18
M  V30 57 1 54 18
M  V30 58 1 55 18
M  V30 59 1 20 56 CFG=1
M  V30 60 1 22 57 CFG=1
M  V30 61 1 58 23
M  V30 62 1 59 23
M  V30 63 1 60 24
M  V30 64 1 25 61 CFG=3
M  V30 65 1 26 62 CFG=1
M  V30 66 1 63 27
M  V30 67 1 64 28
M  V30 68 1 65 29
M  V30 69 1 66 29
M  V30 70 1 67 30
M  V30 71 1 32 68 CFG=3
M  V30 END BOND
M  V30 END CTAB
M  END
>  <i_epik_Tot_Q>  (1) 
1

>  <i_epik_Tot_abs_Q>  (1) 
1

>  <i_i_glide_confnum>  (1) 
1914

>  <i_i_glide_lignum>  (1) 
143

>  <i_i_glide_posenum>  (1) 
121

>  <i_i_glide_rotatable_bonds>  (1) 
16

>  <i_lp_mmshare_version>  (1) 
72125

>  <i_m_source_file_index>  (1) 
82

>  <i_f3d_flags>  (1) 
0

>  <num_sample>  (1) 
100

>  <b_lp_Chiralities_Consistent>  (1) 
1

>  <r_epik_Charging_Adjusted_Penalty>  (1) 
0.61642058797261945

>  <r_epik_Ionization_Penalty>  (1) 
0.30960007796245242

>  <r_epik_Ionization_Penalty_Charging>  (1) 
0.30821029398630978

>  <r_epik_Ionization_Penalty_Neutral>  (1) 
0.0013897839761426282

>  <r_epik_State_Penalty>  (1) 
0.30821029398630967

>  <r_glide_ring_energy>  (1) 
0

>  <r_i_docking_score>  (1) 
-5.0532117820421698

>  <r_i_glide_ecoul>  (1) 
-4.2063368460193242

>  <r_i_glide_eff_state_penalty>  (1) 
0.30821029398630967

>  <r_i_glide_einternal>  (1) 
31.013167149309783

>  <r_i_glide_emodel>  (1) 
-29.142429188132859

>  <r_i_glide_emodel_strain>  (1) 
4.0404074762559503

>  <r_i_glide_energy>  (1) 
-37.995912926083918

>  <r_i_glide_erotb>  (1) 
0.97195684176611152

>  <r_i_glide_esite>  (1) 
0

>  <r_i_glide_evdw>  (1) 
-33.789576080064592

>  <r_i_glide_gscore>  (1) 
-5.3614220760284796

>  <r_i_glide_gscore_strain>  (1) 
0.010101869063987579

>  <r_i_glide_hbond>  (1) 
-0.32000000000000001

>  <r_i_glide_ligand_efficiency>  (1) 
-0.15791286818881781

>  <r_i_glide_ligand_efficiency_ln>  (1) 
-1.1315518633500323

>  <r_i_glide_ligand_efficiency_sa>  (1) 
-0.50134210616449004

>  <r_i_glide_lipo>  (1) 
-2.2495931009827617

>  <r_i_glide_metal>  (1) 
-0

>  <r_i_glide_rewards>  (1) 
-1.4534583549696887

>  <r_lp_Energy>  (1) 
79.058359999999993

>  <s_epik_Chemistry_Notes>  (1) 
This compound contains an acetal/aminal-like group ( X-CH(R)-Y where X, Y are N, S, or O) that may be acid/base labile, releasing an aldehyde. This compound has a N-S or N-O group and may undergo hydrolysis at high or low pH.

>  <s_epik_cmdline>  (1) 
J2VwaWtfcHl0aG9uJywgJy1waHQnLCAnMS4wJywgJy1waCcsICc3LjQnLCAnLXRuJywgJzgnLCAnLW1hJywgJzUwMCcsICctaW1hZScsICc8aW5maWxlLm1hZT4nLCAnLW9tYWUnLCAnPG91dGZpbGUubWFlPic=

>  <s_epik_input>  (1) 
W0NIM11OKFtPSF0pYyhbY0hdMSlbY0hdYyhjMmMxMylbQ0BASF0yT1tOSF1bQ0BdKFtDSDNdKShbQ0BIXTNbT0hdKVtDSDJdW0NAQEhdKFtPSF0pW0NIMl1bQ0BASF0oW0NIMl00KVtDQEhdNFtDSDJdTihbQ0gzXSlbQ0BASF0oW0NIMl1bT0hdKVtDSF0oW09IXSlbT0hd

>  <s_glide_docking_method>  (1) 
confgen

>  <s_i_glide_gridfile>  (1) 
gpcr_drd2_6luq_protein_autoprepared_prepared

>  <s_lp_Force_Field>  (1) 
S-OPLS

>  <s_lp_Variant>  (1) 
DiffSBDD_81-1

>  <s_m_source_file>  (1) 
generated_generic_title2_ligand_DiffSBDD_2026-06-23_prepared.sdf

>  <GenAI_Model>  (1) 
DiffSBDD

>  <Protein>  (1) 
generic_title2

$$$$
DiffSBDD_80
     RDKit          3D

  0  0  0  0  0  0  0  0  0  0999 V3000
M  V30 BEGIN CTAB
M  V30 COUNTS 81 87 0 0 1
M  V30 BEGIN ATOM
M  V30 1 C 8.599254 5.286094 -14.156567 0
M  V30 2 C 7.089448 0.017162 -20.932794 0
M  V30 3 C 6.575394 5.033756 -17.948217 0
M  V30 4 O 5.232508 0.147279 -19.401776 0
M  V30 5 N 10.028288 7.681115 -9.458422 0 CHG=1
M  V30 6 C 4.822398 6.872682 -19.063929 0
M  V30 7 C 6.130535 6.119318 -17.167036 0
M  V30 8 C 5.849420 0.669834 -20.328154 0
M  V30 9 C 6.530873 7.452972 -15.045182 0
M  V30 10 C 10.350707 6.277297 -11.896808 0 CFG=2
M  V30 11 C 11.404561 7.656776 -9.970103 0 CFG=2
M  V30 12 C 6.569407 3.020222 -20.983280 0 CFG=1
M  V30 13 C 8.235211 4.860746 -11.537997 0 CFG=2
M  V30 14 O 7.582753 3.307983 -13.203095 0
M  V30 15 C 7.854081 2.392016 -21.595279 0
M  V30 16 C 5.409480 2.001001 -20.930365 0
M  V30 17 N 7.409837 4.040444 -17.656008 0
M  V30 18 O 7.375412 4.390234 -9.309129 0
M  V30 19 C 9.345300 6.389624 -9.663274 0
M  V30 20 C 5.247172 7.052998 -17.734632 0
M  V30 21 O 8.175411 7.254685 -11.585028 0
M  V30 22 C 8.024380 5.343630 -15.594913 0 CFG=2
M  V30 23 C 7.667121 2.726155 -15.574858 0
M  V30 24 C 6.661405 6.077434 -15.738533 0 CFG=2
M  V30 25 C 5.270511 5.748793 -19.806110 0
M  V30 26 O 11.822146 8.977462 -9.723455 0
M  V30 27 C 6.762552 3.689396 -19.627730 0
M  V30 28 C 9.011197 6.177246 -11.170220 0 CFG=1
M  V30 29 C 6.167284 4.860626 -19.161023 0
M  V30 30 N 7.582609 3.077215 -18.728291 0
M  V30 31 C 9.614798 3.798277 -16.786581 0
M  V30 32 C 8.256073 1.019199 -21.003813 0
M  V30 33 C 11.489047 7.190228 -11.417161 0 CFG=2
M  V30 34 C 7.724701 4.709719 -13.020877 0 CFG=2
M  V30 35 C 8.125306 3.990567 -16.374306 0 CFG=1
M  V30 36 C 4.789547 5.538606 -21.229857 0
M  V30 37 O 10.540853 7.590226 -12.384942 0
M  V30 38 C 6.996929 4.648704 -10.635344 0
M  V30 39 C 6.804575 2.903784 -14.312616 0
M  V30 40 H 8.820816 6.314320 -13.905943 0
M  V30 41 H 9.549136 4.760305 -14.166523 0
M  V30 42 H 7.368738 -0.863236 -20.352305 0
M  V30 43 H 4.571977 2.403141 -20.363026 0
M  V30 44 H 6.830074 -0.326319 -21.934486 0
M  V30 45 H 9.498982 8.381131 -9.961299 0
M  V30 46 H 4.144905 7.583019 -19.511981 0
M  V30 47 H 5.478478 7.714629 -14.930015 0
M  V30 48 H 6.950407 7.466743 -14.041893 0
M  V30 49 H 6.975436 8.262756 -15.617048 0
M  V30 50 H 10.662618 5.457877 -12.529593 0
M  V30 51 H 12.004749 6.992923 -9.352517 0
M  V30 52 H 6.336342 3.752149 -21.739112 0
M  V30 53 H 8.925766 4.035718 -11.351681 0
M  V30 54 H 7.676653 2.240025 -22.660897 0
M  V30 55 H 8.687329 3.093201 -21.532834 0
M  V30 56 H 5.048815 1.794058 -21.937412 0
M  V30 57 H 6.587043 4.390224 -8.775535 0
M  V30 58 H 8.485708 6.390231 -9.006894 0
M  V30 59 H 9.975014 5.576819 -9.297641 0
M  V30 60 H 4.889201 7.893213 -17.158998 0
M  V30 61 H 7.546966 7.449439 -10.883899 0
M  V30 62 H 8.718807 5.990229 -16.126271 0
M  V30 63 H 8.537586 2.143725 -15.274730 0
M  V30 64 H 7.125652 2.054139 -16.242291 0
M  V30 65 H 5.922744 5.466485 -15.231673 0
M  V30 66 H 12.728066 9.083391 -9.984955 0
M  V30 67 H 10.323566 3.990196 -15.985063 0
M  V30 68 H 9.800841 2.789435 -17.159215 0
M  V30 69 H 9.892281 4.484739 -17.589003 0
M  V30 70 H 8.686542 1.140296 -20.009880 0
M  V30 71 H 9.056054 0.592105 -21.609086 0
M  V30 72 H 12.476123 7.169275 -11.868774 0
M  V30 73 H 6.747571 5.190380 -13.076930 0
M  V30 74 H 4.018489 6.266902 -21.478602 0
M  V30 75 H 5.596191 5.703284 -21.943732 0
M  V30 76 H 4.333668 4.559115 -21.363854 0
M  V30 77 H 6.397210 3.803112 -10.976493 0
M  V30 78 H 6.340527 5.520469 -10.654419 0
M  V30 79 H 6.402362 1.924621 -14.049337 0
M  V30 80 H 5.936620 3.541874 -14.439771 0
M  V30 81 H 10.031856 7.912717 -8.476487 0
M  V30 END ATOM
M  V30 BEGIN BOND
M  V30 1 2 7 3
M  V30 2 1 8 2
M  V30 3 2 8 4
M  V30 4 1 11 5
M  V30 5 1 15 12
M  V30 6 1 16 8
M  V30 7 1 16 12
M  V30 8 1 17 3
M  V30 9 1 19 5
M  V30 10 2 20 6
M  V30 11 1 20 7
M  V30 12 1 22 1
M  V30 13 1 24 7
M  V30 14 1 24 9
M  V30 15 1 24 22
M  V30 16 1 25 6
M  V30 17 1 26 11
M  V30 18 1 27 12
M  V30 19 1 28 10
M  V30 20 1 28 13
M  V30 21 1 28 19
M  V30 22 1 28 21 CFG=3
M  V30 23 1 29 3
M  V30 24 2 29 25
M  V30 25 1 29 27
M  V30 26 1 30 17
M  V30 27 2 30 27
M  V30 28 1 32 2
M  V30 29 1 32 15
M  V30 30 1 33 10
M  V30 31 1 33 11
M  V30 32 1 34 1
M  V30 33 1 34 13
M  V30 34 1 34 14
M  V30 35 1 35 17
M  V30 36 1 35 22
M  V30 37 1 35 23
M  V30 38 1 35 31 CFG=3
M  V30 39 1 36 25
M  V30 40 1 37 10
M  V30 41 1 37 33
M  V30 42 1 38 13
M  V30 43 1 38 18
M  V30 44 1 39 14
M  V30 45 1 39 23
M  V30 46 1 40 1
M  V30 47 1 41 1
M  V30 48 1 42 2
M  V30 49 1 43 16
M  V30 50 1 44 2
M  V30 51 1 45 5
M  V30 52 1 46 6
M  V30 53 1 47 9
M  V30 54 1 48 9
M  V30 55 1 49 9
M  V30 56 1 10 50 CFG=3
M  V30 57 1 11 51 CFG=1
M  V30 58 1 12 52 CFG=3
M  V30 59 1 13 53 CFG=1
M  V30 60 1 54 15
M  V30 61 1 55 15
M  V30 62 1 56 16
M  V30 63 1 57 18
M  V30 64 1 58 19
M  V30 65 1 59 19
M  V30 66 1 60 20
M  V30 67 1 61 21
M  V30 68 1 22 62 CFG=3
M  V30 69 1 63 23
M  V30 70 1 64 23
M  V30 71 1 24 65 CFG=1
M  V30 72 1 66 26
M  V30 73 1 67 31
M  V30 74 1 68 31
M  V30 75 1 69 31
M  V30 76 1 70 32
M  V30 77 1 71 32
M  V30 78 1 33 72 CFG=3
M  V30 79 1 34 73 CFG=1
M  V30 80 1 74 36
M  V30 81 1 75 36
M  V30 82 1 76 36
M  V30 83 1 77 38
M  V30 84 1 78 38
M  V30 85 1 79 39
M  V30 86 1 80 39
M  V30 87 1 81 5
M  V30 END BOND
M  V30 END CTAB
M  END
>  <i_epik_Tot_Q>  (1) 
1

>  <i_epik_Tot_abs_Q>  (1) 
1

>  <i_i_glide_confnum>  (1) 
178

>  <i_i_glide_lignum>  (1) 
142

>  <i_i_glide_posenum>  (1) 
385

>  <i_i_glide_rotatable_bonds>  (1) 
7

>  <i_lp_mmshare_version>  (1) 
72125

>  <i_m_source_file_index>  (1) 
81

>  <i_f3d_flags>  (1) 
0

>  <num_sample>  (1) 
100

>  <b_lp_Chiralities_Consistent>  (1) 
1

>  <r_epik_Charging_Adjusted_Penalty>  (1) 
1.2255087210735522

>  <r_epik_Ionization_Penalty>  (1) 
1.2155625160302366

>  <r_epik_Ionization_Penalty_Charging>  (1) 
0.066233371384416553

>  <r_epik_Ionization_Penalty_Neutral>  (1) 
1.14932914464582

>  <r_epik_State_Penalty>  (1) 
1.1592753496891357

>  <r_glide_ring_energy>  (1) 
1.9914992284172288

>  <r_i_docking_score>  (1) 
-5.0523587473897447

>  <r_i_glide_ecoul>  (1) 
-10.660539991456794

>  <r_i_glide_eff_state_penalty>  (1) 
1.1592753496891357

>  <r_i_glide_einternal>  (1) 
12.095056295214009

>  <r_i_glide_emodel>  (1) 
-32.755920324824935

>  <r_i_glide_emodel_strain>  (1) 
2.9408761800385435

>  <r_i_glide_energy>  (1) 
-33.618999754723703

>  <r_i_glide_erotb>  (1) 
0.2829020549976658

>  <r_i_glide_esite>  (1) 
-0.10003198564796817

>  <r_i_glide_evdw>  (1) 
-22.958459763266905

>  <r_i_glide_gscore>  (1) 
-6.2116340970788801

>  <r_i_glide_gscore_strain>  (1) 
0

>  <r_i_glide_hbond>  (1) 
-0.45599999999999996

>  <r_i_glide_ligand_efficiency>  (1) 
-0.12954766018948063

>  <r_i_glide_ligand_efficiency_ln>  (1) 
-1.0833691351722061

>  <r_i_glide_ligand_efficiency_sa>  (1) 
-0.43932350765027761

>  <r_i_glide_lipo>  (1) 
-2.2740062933840566

>  <r_i_glide_metal>  (1) 
-0

>  <r_i_glide_rewards>  (1) 
-0.91749388616265803

>  <r_lp_Energy>  (1) 
35.636825000000002

>  <r_lp_tautomer_probability>  (1) 
0.99999997999999979

>  <s_epik_Chemistry_Notes>  (1) 
This compound contains an acetal/aminal-like group ( X-CH(R)-Y where X, Y are N, S, or O) that may be acid/base labile, releasing an aldehyde.

>  <s_epik_cmdline>  (1) 
J2VwaWtfcHl0aG9uJywgJy1waHQnLCAnMS4wJywgJy1waCcsICc3LjQnLCAnLXRuJywgJzgnLCAnLW1hJywgJzUwMCcsICctaW1hZScsICc8aW5maWxlLm1hZT4nLCAnLW9tYWUnLCAnPG91dGZpbGUubWFlPic=

>  <s_epik_input>  (1) 
W0NASF0xMltDQEBIXShPMilbQ0BASF0oW09IXSlbTkhdW0NIMl1bQ0BdMShbT0hdKVtDQEBIXShbQ0gyXVtPSF0pW0NASF0oT1tDSDJdW0NIMl0zKVtDSDJdW0NAQEhdNFtDQEBIXShbQ0gzXSljKGM1bjZbQ0BdMzRbQ0gzXSlbY0hdW2NIXWMoW0NIM10pYzVjKG42KVtDQEhdKFtDSDJdW0NIMl1bQ0gyXTcpW0NIXT1DN1tPSF0=

>  <s_glide_docking_method>  (1) 
confgen

>  <s_i_glide_gridfile>  (1) 
gpcr_drd2_6luq_protein_autoprepared_prepared

>  <s_lp_Force_Field>  (1) 
S-OPLS

>  <s_lp_Variant>  (1) 
DiffSBDD_80-4

>  <s_m_source_file>  (1) 
generated_generic_title2_ligand_DiffSBDD_2026-06-23_prepared.sdf

>  <GenAI_Model>  (1) 
DiffSBDD

>  <Protein>  (1) 
generic_title2

$$$$
DiffSBDD_59
     RDKit          3D

  0  0  0  0  0  0  0  0  0  0999 V3000
M  V30 BEGIN CTAB
M  V30 COUNTS 68 71 0 0 1
M  V30 BEGIN ATOM
M  V30 1 C 7.266579 1.574984 -17.932345 0 CFG=2
M  V30 2 C 5.687994 2.839434 -20.564936 0
M  V30 3 C 10.874155 7.761045 -7.123496 0
M  V30 4 P 7.613914 0.403520 -16.504587 0 CFG=2
M  V30 5 C 11.375423 7.695105 -4.785043 0
M  V30 6 O 5.775406 2.807135 -13.185138 0
M  V30 7 C 8.209189 4.310643 -12.068706 0
M  V30 8 C 9.392039 6.098642 -10.853847 0
M  V30 9 C 7.251820 3.032030 -17.419436 0
M  V30 10 C 9.266415 5.367200 -9.651062 0
M  V30 11 C 9.742881 5.906948 -8.438734 0
M  V30 12 C 6.859624 -1.197692 -19.534506 0
M  V30 13 N 8.951514 5.569533 -12.084346 0
M  V30 14 C 6.024976 1.158123 -18.781760 0 CFG=1
M  V30 15 O 5.197896 3.880711 -20.998614 0
M  V30 16 C 10.352308 7.189939 -8.402728 0
M  V30 17 O 7.188061 0.812949 -20.785337 0
M  V30 18 C 6.051248 0.019014 -15.611070 0
M  V30 19 C 10.866886 7.049717 -5.913240 0
M  V30 20 C 6.210746 1.711686 -22.794615 0
M  V30 21 O 5.375327 2.288799 -19.355559 0
M  V30 22 C 6.520830 0.089075 -14.150194 0 CFG=2
M  V30 23 C 7.895354 3.859366 -13.514590 0 CFG=1
M  V30 24 C 11.805684 9.534514 -6.026768 0
M  V30 25 O 5.466116 -0.009765 -13.216408 0
M  V30 26 C 9.982810 7.374408 -10.827101 0
M  V30 27 C 6.943948 2.646754 -13.517797 0
M  V30 28 C 7.511555 1.285381 -14.002382 0 CFG=2
M  V30 29 C 10.457621 7.917413 -9.617098 0
M  V30 30 N 8.175419 1.429333 -15.280768 0
M  V30 31 O 8.483002 -0.762500 -16.821930 0
M  V30 32 N 11.374932 9.017598 -7.184904 0
M  V30 33 N 11.840931 8.959410 -4.819076 0
M  V30 34 C 6.273474 0.159806 -19.927026 0 CFG=1
M  V30 35 C 6.730925 2.028879 -21.385272 0 CFG=1
M  V30 36 N 7.301730 4.972899 -14.265946 0
M  V30 37 H 8.147216 1.520308 -18.572636 0
M  V30 38 H 11.397556 7.195874 -3.828038 0
M  V30 39 H 7.289211 4.439352 -11.494423 0
M  V30 40 H 8.803626 3.532221 -11.588941 0
M  V30 41 H 6.980330 3.760355 -18.181884 0
M  V30 42 H 6.575674 3.140606 -16.576818 0
M  V30 43 H 8.242893 3.327456 -17.074178 0
M  V30 44 H 8.813172 4.390252 -9.650739 0
M  V30 45 H 9.641636 5.331425 -7.535656 0
M  V30 46 H 6.286368 -1.666822 -18.734737 0
M  V30 47 H 6.855481 -1.872044 -20.390644 0
M  V30 48 H 7.895797 -1.103387 -19.215461 0
M  V30 49 H 8.920228 6.147640 -12.913044 0
M  V30 50 H 5.288111 0.718508 -18.111352 0
M  V30 51 H 5.638992 -0.947455 -15.902877 0
M  V30 52 H 5.310836 0.790208 -15.806092 0
M  V30 53 H 10.486888 6.044371 -5.847125 0
M  V30 54 H 5.874562 2.611046 -23.311982 0
M  V30 55 H 6.994465 1.257145 -23.401226 0
M  V30 56 H 5.375532 1.013774 -22.760780 0
M  V30 57 H 7.113879 -0.809781 -13.984981 0
M  V30 58 H 8.831021 3.590886 -14.001454 0
M  V30 59 H 12.181890 10.545628 -6.075418 0
M  V30 60 H 5.191118 -0.931339 -13.190205 0
M  V30 61 H 10.079732 7.940583 -11.740859 0
M  V30 62 H 8.248983 0.984838 -13.257458 0
M  V30 63 H 10.913260 8.895715 -9.620064 0
M  V30 64 H 9.176867 1.588261 -15.207593 0
M  V30 65 H 5.336907 -0.026738 -20.456417 0
M  V30 66 H 7.606328 2.669274 -21.493158 0
M  V30 67 H 6.997531 4.680435 -15.182490 0
M  V30 68 H 6.480138 5.321234 -13.789789 0
M  V30 END ATOM
M  V30 BEGIN BOND
M  V30 1 1 4 1
M  V30 2 1 9 1
M  V30 3 1 10 8
M  V30 4 2 11 10
M  V30 5 1 13 7
M  V30 6 1 13 8
M  V30 7 1 14 1
M  V30 8 2 15 2
M  V30 9 1 16 3
M  V30 10 1 16 11
M  V30 11 1 18 4
M  V30 12 1 19 3
M  V30 13 2 19 5
M  V30 14 1 21 2
M  V30 15 1 21 14
M  V30 16 1 22 18
M  V30 17 1 23 7
M  V30 18 1 25 22
M  V30 19 2 26 8
M  V30 20 2 27 6
M  V30 21 1 27 23
M  V30 22 1 28 22
M  V30 23 1 28 27
M  V30 24 2 29 16
M  V30 25 1 29 26
M  V30 26 1 4 30 CFG=1
M  V30 27 1 30 28
M  V30 28 2 31 4
M  V30 29 2 32 3
M  V30 30 1 32 24
M  V30 31 1 33 5
M  V30 32 2 33 24
M  V30 33 1 34 12
M  V30 34 1 34 14
M  V30 35 1 34 17
M  V30 36 1 35 2
M  V30 37 1 35 17
M  V30 38 1 35 20
M  V30 39 1 36 23
M  V30 40 1 1 37 CFG=3
M  V30 41 1 38 5
M  V30 42 1 39 7
M  V30 43 1 40 7
M  V30 44 1 41 9
M  V30 45 1 42 9
M  V30 46 1 43 9
M  V30 47 1 44 10
M  V30 48 1 45 11
M  V30 49 1 46 12
M  V30 50 1 47 12
M  V30 51 1 48 12
M  V30 52 1 49 13
M  V30 53 1 14 50 CFG=1
M  V30 54 1 51 18
M  V30 55 1 52 18
M  V30 56 1 53 19
M  V30 57 1 54 20
M  V30 58 1 55 20
M  V30 59 1 56 20
M  V30 60 1 22 57 CFG=1
M  V30 61 1 23 58 CFG=3
M  V30 62 1 59 24
M  V30 63 1 60 25
M  V30 64 1 61 26
M  V30 65 1 28 62 CFG=1
M  V30 66 1 63 29
M  V30 67 1 64 30
M  V30 68 1 34 65 CFG=3
M  V30 69 1 35 66 CFG=3
M  V30 70 1 67 36
M  V30 71 1 68 36
M  V30 END BOND
M  V30 END CTAB
M  END
>  <i_epik_Tot_Q>  (1) 
0

>  <i_epik_Tot_abs_Q>  (1) 
0

>  <i_i_glide_confnum>  (1) 
745

>  <i_i_glide_lignum>  (1) 
93

>  <i_i_glide_posenum>  (1) 
127

>  <i_i_glide_rotatable_bonds>  (1) 
9

>  <i_lp_mmshare_version>  (1) 
72125

>  <i_m_source_file_index>  (1) 
60

>  <i_f3d_flags>  (1) 
0

>  <num_sample>  (1) 
100

>  <b_lp_Chiralities_Consistent>  (1) 
1

>  <r_epik_Charging_Adjusted_Penalty>  (1) 
0.17519301337449719

>  <r_epik_Ionization_Penalty>  (1) 
0.17525123447418861

>  <r_epik_Ionization_Penalty_Charging>  (1) 
0

>  <r_epik_Ionization_Penalty_Neutral>  (1) 
0.17525123447418861

>  <r_epik_State_Penalty>  (1) 
0.17519301337449719

>  <r_glide_ring_energy>  (1) 
0.33568593268258745

>  <r_i_docking_score>  (1) 
-5.0367724377437968

>  <r_i_glide_ecoul>  (1) 
-3.8298273336449533

>  <r_i_glide_eff_state_penalty>  (1) 
0.17519301337449719

>  <r_i_glide_einternal>  (1) 
16.487230965526017

>  <r_i_glide_emodel>  (1) 
-54.475187700012164

>  <r_i_glide_emodel_strain>  (1) 
1.8560749450956209

>  <r_i_glide_energy>  (1) 
-50.298363137519743

>  <r_i_glide_erotb>  (1) 
0.61329316708187109

>  <r_i_glide_esite>  (1) 
0

>  <r_i_glide_evdw>  (1) 
-46.468535803874794

>  <r_i_glide_gscore>  (1) 
-5.211965451118294

>  <r_i_glide_gscore_strain>  (1) 
0

>  <r_i_glide_hbond>  (1) 
-0.16

>  <r_i_glide_ligand_efficiency>  (1) 
-0.13991034549288325

>  <r_i_glide_ligand_efficiency_ln>  (1) 
-1.0988876680501638

>  <r_i_glide_ligand_efficiency_sa>  (1) 
-0.46197378218521279

>  <r_i_glide_lipo>  (1) 
-1.3437329789912125

>  <r_i_glide_metal>  (1) 
-0

>  <r_i_glide_rewards>  (1) 
-1.4236247489684708

>  <r_lp_Energy>  (1) 
53.336779999999997

>  <r_lp_tautomer_probability>  (1) 
0.99990000499974985

>  <s_epik_Chemistry_Notes>  (1) 
This compound has an ester and may undergo hydrolysis at high or low pH.

>  <s_epik_cmdline>  (1) 
J2VwaWtfcHl0aG9uJywgJy1waHQnLCAnMS4wJywgJy1waCcsICc3LjQnLCAnLXRuJywgJzgnLCAnLW1hJywgJzUwMCcsICctaW1hZScsICc8aW5maWxlLm1hZT4nLCAnLW9tYWUnLCAnPG91dGZpbGUubWFlPic=

>  <s_epik_input>  (1) 
W0NIM11bQ0BASF0xT1tDQEBIXShbQ0gzXSlbQ0BIXShPQzE9TylbQ0BASF0oW0NIM10pW1BAXTIoPU8pW0NIMl1bQ0BIXShbT0hdKVtDQEBIXShbTkhdMilDKD1PKVtDQEBIXShbTkgyXSlbQ0gyXVtOSF1jM1tjSF1bY0hdYyhbY0hdW2NIXTMpLWM0W2NIXVtjSF1uW2NIXW40

>  <s_glide_docking_method>  (1) 
confgen

>  <s_i_glide_gridfile>  (1) 
gpcr_drd2_6luq_protein_autoprepared_prepared

>  <s_lp_Force_Field>  (1) 
S-OPLS

>  <s_lp_Variant>  (1) 
DiffSBDD_59-1

>  <s_m_source_file>  (1) 
generated_generic_title2_ligand_DiffSBDD_2026-06-23_prepared.sdf

>  <GenAI_Model>  (1) 
DiffSBDD

>  <Protein>  (1) 
generic_title2

$$$$
DiffSBDD_35
     RDKit          3D

  0  0  0  0  0  0  0  0  0  0999 V3000
M  V30 BEGIN CTAB
M  V30 COUNTS 58 60 0 0 1
M  V30 BEGIN ATOM
M  V30 1 O 6.627995 -0.216797 -15.536704 0
M  V30 2 N 11.606657 8.957562 -4.397672 0 CHG=1
M  V30 3 C 11.958700 6.790234 -2.706890 0
M  V30 4 C 10.649835 6.280759 -6.739912 0
M  V30 5 C 7.600957 4.142053 -16.417084 0
M  V30 6 C 6.980021 0.944767 -14.866622 0
M  V30 7 C 10.456227 8.725590 -6.922438 0
M  V30 8 C 6.910581 6.381973 -15.422970 0
M  V30 9 C 11.987205 9.183767 -3.119077 0
M  V30 10 Cl 5.531113 7.217060 -13.352199 0
M  V30 11 O 7.278407 1.952135 -15.777375 0
M  V30 12 C 9.228692 5.930652 -10.434133 0
M  V30 13 C 6.902030 4.851317 -13.460547 0
M  V30 14 C 11.563294 6.590192 -4.047853 0
M  V30 15 S 6.769672 4.922153 -11.641599 0
M  V30 16 C 7.836402 5.590226 -16.265926 0
M  V30 17 C 10.280594 6.618270 -8.194913 0 CFG=2
M  V30 18 C 9.701099 8.056054 -8.089606 0 CFG=2
M  V30 19 C 7.380489 3.275286 -15.424736 0
M  V30 20 C 8.123223 5.190227 -8.267789 0
M  V30 21 C 9.453511 5.541198 -8.950050 0 CFG=1
M  V30 22 N 11.034742 7.582265 -6.261640 0
M  V30 23 C 6.527876 6.081364 -14.176559 0
M  V30 24 O 6.175410 3.590228 -11.182992 0
M  V30 25 C 11.388657 7.713119 -4.895939 0
M  V30 26 O 9.253874 3.897932 -11.693491 0
M  V30 27 C 8.573599 4.830641 -11.272302 0
M  V30 28 C 7.657047 -0.706507 -16.385025 0
M  V30 29 F 9.867994 8.746445 -9.217276 0
M  V30 30 C 7.260132 3.640075 -13.995483 0
M  V30 31 C 12.175411 8.102963 -2.238912 0
M  V30 32 H 12.096268 5.945343 -2.047049 0
M  V30 33 H 9.804052 5.935034 -6.150095 0
M  V30 34 H 11.467677 5.562437 -6.689215 0
M  V30 35 H 7.676347 3.761065 -17.425652 0
M  V30 36 H 7.836540 0.752877 -14.217051 0
M  V30 37 H 6.119815 1.220755 -14.254938 0
M  V30 38 H 9.775410 9.266605 -6.270929 0
M  V30 39 H 11.250168 9.386615 -7.272093 0
M  V30 40 H 6.575407 7.315353 -15.852959 0
M  V30 41 H 12.127244 10.215132 -2.838292 0
M  V30 42 H 10.175407 6.195821 -10.905072 0
M  V30 43 H 8.598758 6.816488 -10.502505 0
M  V30 44 H 11.403050 5.590228 -4.417524 0
M  V30 45 H 7.777140 6.004578 -17.272191 0
M  V30 46 H 8.861729 5.752031 -15.931478 0
M  V30 47 H 11.226650 6.714166 -8.731209 0
M  V30 48 H 8.634871 8.026653 -7.866587 0
M  V30 49 H 7.375410 5.914083 -8.555194 0
M  V30 50 H 7.743880 4.219508 -8.578830 0
M  V30 51 H 8.162431 5.190230 -7.185025 0
M  V30 52 H 10.056139 4.631843 -8.931934 0
M  V30 53 H 7.328321 -1.631399 -16.856168 0
M  V30 54 H 7.890512 -0.001489 -17.183775 0
M  V30 55 H 8.571571 -0.913489 -15.827131 0
M  V30 56 H 7.434149 2.847746 -13.283895 0
M  V30 57 H 12.479276 8.278172 -1.216821 0
M  V30 58 H 11.485711 9.758652 -5.017745 0
M  V30 END ATOM
M  V30 BEGIN BOND
M  V30 1 1 6 1
M  V30 2 2 9 2
M  V30 3 1 11 6
M  V30 4 1 14 3
M  V30 5 1 15 13
M  V30 6 1 16 5
M  V30 7 1 16 8
M  V30 8 1 17 4
M  V30 9 1 18 7
M  V30 10 1 18 17
M  V30 11 2 19 5
M  V30 12 1 19 11
M  V30 13 1 21 12
M  V30 14 1 21 17
M  V30 15 1 21 20
M  V30 16 1 22 4
M  V30 17 1 22 7
M  V30 18 2 23 8
M  V30 19 1 23 10
M  V30 20 1 23 13
M  V30 21 2 24 15
M  V30 22 1 25 2
M  V30 23 2 25 14
M  V30 24 1 25 22
M  V30 25 1 27 12
M  V30 26 1 15 27 CFG=1
M  V30 27 2 27 26
M  V30 28 1 28 1
M  V30 29 1 29 18
M  V30 30 2 30 13
M  V30 31 1 30 19
M  V30 32 2 31 3
M  V30 33 1 31 9
M  V30 34 1 32 3
M  V30 35 1 33 4
M  V30 36 1 34 4
M  V30 37 1 35 5
M  V30 38 1 36 6
M  V30 39 1 37 6
M  V30 40 1 38 7
M  V30 41 1 39 7
M  V30 42 1 40 8
M  V30 43 1 41 9
M  V30 44 1 42 12
M  V30 45 1 43 12
M  V30 46 1 44 14
M  V30 47 1 45 16
M  V30 48 1 46 16
M  V30 49 1 17 47 CFG=3
M  V30 50 1 18 48 CFG=1
M  V30 51 1 49 20
M  V30 52 1 50 20
M  V30 53 1 51 20
M  V30 54 1 21 52 CFG=3
M  V30 55 1 53 28
M  V30 56 1 54 28
M  V30 57 1 55 28
M  V30 58 1 56 30
M  V30 59 1 57 31
M  V30 60 1 58 2
M  V30 END BOND
M  V30 END CTAB
M  END
>  <i_epik_Tot_Q>  (1) 
1

>  <i_epik_Tot_abs_Q>  (1) 
1

>  <i_i_glide_confnum>  (1) 
600

>  <i_i_glide_lignum>  (1) 
60

>  <i_i_glide_posenum>  (1) 
127

>  <i_i_glide_rotatable_bonds>  (1) 
9

>  <i_lp_mmshare_version>  (1) 
72125

>  <i_m_source_file_index>  (1) 
36

>  <i_f3d_flags>  (1) 
0

>  <num_sample>  (1) 
100

>  <b_lp_Chiralities_Consistent>  (1) 
1

>  <r_epik_Charging_Adjusted_Penalty>  (1) 
2.209854292761551

>  <r_epik_Ionization_Penalty>  (1) 
1.1049271463807997

>  <r_epik_Ionization_Penalty_Charging>  (1) 
1.1049271463807746

>  <r_epik_Ionization_Penalty_Neutral>  (1) 
2.4996070932980704e-14

>  <r_epik_State_Penalty>  (1) 
1.1049271463807766

>  <r_glide_ring_energy>  (1) 
0

>  <r_i_docking_score>  (1) 
-5.033028461337647

>  <r_i_glide_ecoul>  (1) 
-3.6392537561225766

>  <r_i_glide_eff_state_penalty>  (1) 
1.1049271463807766

>  <r_i_glide_einternal>  (1) 
5.5635124681311305

>  <r_i_glide_emodel>  (1) 
-57.357661458595189

>  <r_i_glide_emodel_strain>  (1) 
0.258411020079933

>  <r_i_glide_energy>  (1) 
-43.165924597873428

>  <r_i_glide_erotb>  (1) 
0.7316535107535509

>  <r_i_glide_esite>  (1) 
-0.10010660345681173

>  <r_i_glide_evdw>  (1) 
-39.52667084175085

>  <r_i_glide_gscore>  (1) 
-6.1379556077184239

>  <r_i_glide_gscore_strain>  (1) 
0

>  <r_i_glide_hbond>  (1) 
0

>  <r_i_glide_ligand_efficiency>  (1) 
-0.16235575681734346

>  <r_i_glide_ligand_efficiency_ln>  (1) 
-1.1351021618299999

>  <r_i_glide_ligand_efficiency_sa>  (1) 
-0.51002123327036486

>  <r_i_glide_lipo>  (1) 
-2.6106375929988324

>  <r_i_glide_metal>  (1) 
-0

>  <r_i_glide_rewards>  (1) 
-1.636643316510402

>  <r_lp_Energy>  (1) 
47.315815999999998

>  <r_lp_tautomer_probability>  (1) 
0.99999385203779767

>  <s_epik_Chemistry_Notes>  (1) 
This compound contains an acetal/aminal-like group ( X-CH(R)-Y where X, Y are N, S, or O) that may be acid/base labile, releasing an aldehyde.

>  <s_epik_cmdline>  (1) 
J2VwaWtfcHl0aG9uJywgJy1waHQnLCAnMS4wJywgJy1waCcsICc3LjQnLCAnLXRuJywgJzgnLCAnLW1hJywgJzUwMCcsICctaW1hZScsICc8aW5maWxlLm1hZT4nLCAnLW9tYWUnLCAnPG91dGZpbGUubWFlPic=

>  <s_epik_input>  (1) 
Q2xDMT1bQ0hdW0NIMl1bQ0hdPUMoT1tDSDJdT1tDSDNdKVtDSF09QzFbU0BAXSg9TylDKD1PKVtDSDJdW0NASF0oW0NIM10pW0NAQEhdMltDSDJdTihbQ0gyXVtDQEhdMkYpYzNuW2NIXVtjSF1bY0hdW2NIXTM=

>  <s_glide_docking_method>  (1) 
confgen

>  <s_i_glide_gridfile>  (1) 
gpcr_drd2_6luq_protein_autoprepared_prepared

>  <s_lp_Force_Field>  (1) 
S-OPLS

>  <s_lp_Variant>  (1) 
DiffSBDD_35-2

>  <s_m_source_file>  (1) 
generated_generic_title2_ligand_DiffSBDD_2026-06-23_prepared.sdf

>  <GenAI_Model>  (1) 
DiffSBDD

>  <Protein>  (1) 
generic_title2

$$$$
DiffSBDD_89
     RDKit          3D

  0  0  0  0  0  0  0  0  0  0999 V3000
M  V30 BEGIN CTAB
M  V30 COUNTS 79 82 0 0 1
M  V30 BEGIN ATOM
M  V30 1 C 11.408000 7.682491 -8.807056 0
M  V30 2 O 12.518238 1.953198 -18.113234 0
M  V30 3 C 11.432266 5.683740 -19.246798 0
M  V30 4 C 10.205885 2.361367 -18.547250 0
M  V30 5 C 11.554827 2.708017 -17.984968 0
M  V30 6 C 11.668861 4.038528 -17.238431 0 CFG=1
M  V30 7 F 9.375399 6.608486 -5.985014 0
M  V30 8 C 10.256913 6.790081 -12.239581 0
M  V30 9 C 6.145232 5.649376 -13.469294 0
M  V30 10 C 7.171685 4.880194 -9.985040 0
M  V30 11 F 11.510903 6.390218 -6.073988 0
M  V30 12 F 10.620212 8.371326 -6.083131 0
M  V30 13 C 13.715272 4.762920 -18.683399 0
M  V30 14 C 7.937926 4.069623 -15.957181 0 CFG=2
M  V30 15 C 9.318263 6.253739 -10.053746 0
M  V30 16 N 9.234282 3.672556 -16.606822 0
M  V30 17 C 6.847006 0.007757 -13.220473 0
M  V30 18 C 12.339201 5.165811 -18.109489 0
M  V30 19 O 12.422002 8.377543 -8.208700 0
M  V30 20 C 8.221784 5.479572 -12.058688 0
M  V30 21 C 8.274064 5.556052 -10.705123 0
M  V30 22 C 7.063435 4.720485 -12.636605 0 CFG=1
M  V30 23 C 9.375414 6.328617 -8.648985 0
M  V30 24 C 10.419270 7.041945 -8.021562 0
M  V30 25 C 9.206157 6.075821 -12.850790 0
M  V30 26 C 10.332644 4.502209 -16.553524 0
M  V30 27 O 10.303364 5.590217 -15.985011 0
M  V30 28 C 7.209170 3.143855 -14.876640 0 CFG=1
M  V30 29 C 6.998640 4.626553 -17.046886 0
M  V30 30 C 11.352915 7.600511 -10.210107 0
M  V30 31 C 10.481726 7.113680 -6.507614 0
M  V30 32 C 7.081352 1.624805 -15.230587 0 CFG=2
M  V30 33 F 6.575169 1.529666 -16.457387 0
M  V30 34 O 12.651532 6.269935 -17.277640 0
M  V30 35 C 9.243561 2.405716 -17.370083 0
M  V30 36 C 6.322528 4.421281 -11.236552 0
M  V30 37 C 7.514685 3.377895 -13.340027 0 CFG=1
M  V30 38 C 8.893019 2.866259 -12.856051 0
M  V30 39 C 6.140817 0.747409 -14.363309 0
M  V30 40 C 10.310539 6.886978 -10.834897 0
M  V30 41 H 11.215012 4.899290 -19.972200 0
M  V30 42 H 10.479289 6.062171 -18.876587 0
M  V30 43 H 11.908025 6.499216 -19.793064 0
M  V30 44 H 9.923561 3.083354 -19.312875 0
M  V30 45 H 10.226315 1.373397 -19.007381 0
M  V30 46 H 12.344849 3.831090 -16.406658 0
M  V30 47 H 11.017043 7.256337 -12.845679 0
M  V30 48 H 5.237946 5.138138 -13.789680 0
M  V30 49 H 5.827610 6.507445 -12.875658 0
M  V30 50 H 6.632206 6.064210 -14.347475 0
M  V30 51 H 7.508687 4.044744 -9.377962 0
M  V30 52 H 6.627429 5.590227 -9.373554 0
M  V30 53 H 13.636025 3.979852 -19.437748 0
M  V30 54 H 14.206748 5.610230 -19.164065 0
M  V30 55 H 14.382921 4.403247 -17.898855 0
M  V30 56 H 8.135793 4.959635 -15.379911 0
M  V30 57 H 6.229180 -0.808434 -12.846896 0
M  V30 58 H 7.781156 -0.409776 -13.585181 0
M  V30 59 H 7.079657 0.642148 -12.369009 0
M  V30 60 H 12.321261 8.439274 -7.270272 0
M  V30 61 H 8.617971 5.844449 -8.051786 0
M  V30 62 H 9.160103 5.990406 -13.916836 0
M  V30 63 H 6.175451 3.471919 -14.942687 0
M  V30 64 H 6.174007 5.190315 -16.610939 0
M  V30 65 H 7.531159 5.317348 -17.701516 0
M  V30 66 H 6.578894 3.838953 -17.673093 0
M  V30 67 H 12.112160 8.084275 -10.805499 0
M  V30 68 H 8.054783 1.144655 -15.256413 0
M  V30 69 H 11.884214 6.474017 -16.755746 0
M  V30 70 H 9.486033 1.577904 -16.708613 0
M  V30 71 H 8.263512 2.222977 -17.799098 0
M  V30 72 H 5.394682 4.994382 -11.195705 0
M  V30 73 H 5.989692 3.391655 -11.113903 0
M  V30 74 H 6.822769 2.682154 -12.889839 0
M  V30 75 H 9.705778 3.511792 -13.184990 0
M  V30 76 H 8.963779 2.842261 -11.769085 0
M  V30 77 H 9.083211 1.847348 -13.185005 0
M  V30 78 H 5.291008 1.311691 -13.985007 0
M  V30 79 H 5.707738 -0.027411 -14.998512 0
M  V30 END ATOM
M  V30 BEGIN BOND
M  V30 1 2 5 2
M  V30 2 1 5 4
M  V30 3 1 6 5
M  V30 4 1 16 14
M  V30 5 1 18 3
M  V30 6 1 18 6
M  V30 7 1 18 13
M  V30 8 1 19 1
M  V30 9 1 21 10
M  V30 10 1 21 15
M  V30 11 2 21 20
M  V30 12 1 22 9 CFG=3
M  V30 13 1 22 20
M  V30 14 2 23 15
M  V30 15 2 24 1
M  V30 16 1 24 23
M  V30 17 2 25 8
M  V30 18 1 25 20
M  V30 19 1 26 6
M  V30 20 1 26 16
M  V30 21 2 27 26
M  V30 22 1 28 14
M  V30 23 1 29 14
M  V30 24 1 30 1
M  V30 25 1 31 7
M  V30 26 1 31 11
M  V30 27 1 31 12
M  V30 28 1 31 24
M  V30 29 1 32 28
M  V30 30 1 33 32
M  V30 31 1 34 18
M  V30 32 1 35 4
M  V30 33 1 35 16
M  V30 34 1 36 10
M  V30 35 1 36 22
M  V30 36 1 37 22
M  V30 37 1 37 28
M  V30 38 1 38 37
M  V30 39 1 39 17
M  V30 40 1 39 32
M  V30 41 1 40 8
M  V30 42 1 40 15
M  V30 43 2 40 30
M  V30 44 1 41 3
M  V30 45 1 42 3
M  V30 46 1 43 3
M  V30 47 1 44 4
M  V30 48 1 45 4
M  V30 49 1 6 46 CFG=1
M  V30 50 1 47 8
M  V30 51 1 48 9
M  V30 52 1 49 9
M  V30 53 1 50 9
M  V30 54 1 51 10
M  V30 55 1 52 10
M  V30 56 1 53 13
M  V30 57 1 54 13
M  V30 58 1 55 13
M  V30 59 1 14 56 CFG=1
M  V30 60 1 57 17
M  V30 61 1 58 17
M  V30 62 1 59 17
M  V30 63 1 60 19
M  V30 64 1 61 23
M  V30 65 1 62 25
M  V30 66 1 28 63 CFG=1
M  V30 67 1 64 29
M  V30 68 1 65 29
M  V30 69 1 66 29
M  V30 70 1 67 30
M  V30 71 1 32 68 CFG=3
M  V30 72 1 69 34
M  V30 73 1 70 35
M  V30 74 1 71 35
M  V30 75 1 72 36
M  V30 76 1 73 36
M  V30 77 1 37 74 CFG=1
M  V30 78 1 75 38
M  V30 79 1 76 38
M  V30 80 1 77 38
M  V30 81 1 78 39
M  V30 82 1 79 39
M  V30 END BOND
M  V30 END CTAB
M  END
>  <i_epik_Tot_Q>  (1) 
0

>  <i_epik_Tot_abs_Q>  (1) 
0

>  <i_i_glide_confnum>  (1) 
166

>  <i_i_glide_lignum>  (1) 
164

>  <i_i_glide_posenum>  (1) 
380

>  <i_i_glide_rotatable_bonds>  (1) 
10

>  <i_lp_mmshare_version>  (1) 
72125

>  <i_m_source_file_index>  (1) 
90

>  <i_f3d_flags>  (1) 
0

>  <num_sample>  (1) 
100

>  <b_lp_Chiralities_Consistent>  (1) 
1

>  <r_epik_Charging_Adjusted_Penalty>  (1) 
0

>  <r_epik_Ionization_Penalty>  (1) 
0.063976020685543381

>  <r_epik_Ionization_Penalty_Charging>  (1) 
0

>  <r_epik_Ionization_Penalty_Neutral>  (1) 
0.063976020685543381

>  <r_epik_State_Penalty>  (1) 
-0

>  <r_glide_ring_energy>  (1) 
0

>  <r_i_docking_score>  (1) 
-5.0283730222998599

>  <r_i_glide_ecoul>  (1) 
0.54942156991609947

>  <r_i_glide_eff_state_penalty>  (1) 
-0

>  <r_i_glide_einternal>  (1) 
14.724912613515656

>  <r_i_glide_emodel>  (1) 
-35.442148879239973

>  <r_i_glide_emodel_strain>  (1) 
0.41204970243016703

>  <r_i_glide_energy>  (1) 
-33.590580070888187

>  <r_i_glide_erotb>  (1) 
0.30496708774431369

>  <r_i_glide_esite>  (1) 
-0.012493425711381579

>  <r_i_glide_evdw>  (1) 
-34.140001640804286

>  <r_i_glide_gscore>  (1) 
-5.0283730222998599

>  <r_i_glide_gscore_strain>  (1) 
0

>  <r_i_glide_hbond>  (1) 
0

>  <r_i_glide_ligand_efficiency>  (1) 
-0.1257093255574965

>  <r_i_glide_ligand_efficiency_ln>  (1) 
-1.0724039872443423

>  <r_i_glide_ligand_efficiency_sa>  (1) 
-0.4299198459525384

>  <r_i_glide_lipo>  (1) 
-2.0037725530924182

>  <r_i_glide_metal>  (1) 
-0

>  <r_i_glide_rewards>  (1) 
-1.6924872846875738

>  <r_lp_Energy>  (1) 
57.567276

>  <r_lp_tautomer_probability>  (1) 
1

>  <s_epik_cmdline>  (1) 
J2VwaWtfcHl0aG9uJywgJy1waHQnLCAnMS4wJywgJy1waCcsICc3LjQnLCAnLXRuJywgJzgnLCAnLW1hJywgJzUwMCcsICctaW1hZScsICc8aW5maWxlLm1hZT4nLCAnLW9tYWUnLCAnPG91dGZpbGUubWFlPic=

>  <s_epik_input>  (1) 
RkMoRikoRiljKFtjSF0xKWMoW09IXSlbY0hdYzJbY0hdW2NIXWMoYzNjMTIpW0NAXShbQ0gzXSkoW0NIMl1bQ0gyXTMpW0NASF0oW0NIM10pW0NASF0oW0NASF0oRilbQ0gyXVtDSDNdKVtDQEhdKFtDSDNdKU4oW0NIMl1bQ0gyXUM0PU8pQyg9TylbQ0BASF00QyhbQ0gzXSkoW0NIM10pW09IXQ==

>  <s_glide_docking_method>  (1) 
confgen

>  <s_i_glide_gridfile>  (1) 
gpcr_drd2_6luq_protein_autoprepared_prepared

>  <s_lp_Force_Field>  (1) 
S-OPLS

>  <s_lp_Variant>  (1) 
DiffSBDD_89-1

>  <s_m_source_file>  (1) 
generated_generic_title2_ligand_DiffSBDD_2026-06-23_prepared.sdf

>  <GenAI_Model>  (1) 
DiffSBDD

>  <Protein>  (1) 
generic_title2

$$$$
DiffSBDD_34
     RDKit          3D

  0  0  0  0  0  0  0  0  0  0999 V3000
M  V30 BEGIN CTAB
M  V30 COUNTS 48 50 0 0 1
M  V30 BEGIN ATOM
M  V30 1 O 10.102488 8.452283 -7.731250 0
M  V30 2 C 6.125795 6.247397 -16.760700 0
M  V30 3 C 3.904630 7.339239 -18.149566 0
M  V30 4 C 9.618340 7.229586 -8.280809 0 CFG=2
M  V30 5 C 10.486500 6.748962 -6.142506 0
M  V30 6 C 8.091523 5.214597 -13.850220 0
M  V30 7 C 10.383532 6.143532 -7.523556 0
M  V30 8 C 10.697780 8.227345 -6.456322 0
M  V30 9 C 9.375408 4.939244 -14.341644 0
M  V30 10 N 7.070318 5.610742 -14.636055 0
M  V30 11 C 6.870315 5.080175 -18.952296 0
M  V30 12 C 4.822107 6.537602 -18.837150 0
M  V30 13 C 8.554485 5.459299 -16.547658 0
M  V30 14 C 7.290125 5.731647 -15.973012 0
M  V30 15 C 11.118089 7.590267 -10.351644 0
M  V30 16 O 9.375409 4.872349 -10.061344 0
M  V30 17 C 9.607481 5.070996 -15.718754 0
M  V30 18 C 7.787328 5.093067 -12.367546 0
M  V30 19 C 5.928935 5.981029 -18.166860 0
M  V30 20 C 9.135617 5.990233 -10.513140 0
M  V30 21 C 9.707343 7.252086 -9.830884 0 CFG=1
M  V30 22 C 4.072932 7.590222 -16.788143 0
M  V30 23 C 5.165181 7.051774 -16.098863 0
M  V30 24 N 8.380455 6.188529 -11.604458 0
M  V30 25 Cl 11.172620 4.790168 -16.385080 0
M  V30 26 H 3.063434 7.766909 -18.671387 0
M  V30 27 H 8.575416 7.147421 -7.984898 0
M  V30 28 H 11.286825 6.318813 -5.540108 0
M  V30 29 H 9.545396 6.608091 -5.608894 0
M  V30 30 H 9.859186 5.190224 -7.522983 0
M  V30 31 H 11.375406 5.990277 -7.937958 0
M  V30 32 H 11.761870 8.455156 -6.530122 0
M  V30 33 H 10.262265 8.875148 -5.695228 0
M  V30 34 H 10.170147 4.642410 -13.673711 0
M  V30 35 H 7.701712 5.642419 -19.378096 0
M  V30 36 H 7.215325 4.221328 -18.377250 0
M  V30 37 H 6.332409 4.654644 -19.799713 0
M  V30 38 H 4.676231 6.340379 -19.889145 0
M  V30 39 H 8.732571 5.596365 -17.592345 0
M  V30 40 H 11.209815 7.406374 -11.422861 0
M  V30 41 H 11.340168 8.645159 -10.185412 0
M  V30 42 H 11.895936 7.023595 -9.846068 0
M  V30 43 H 6.708431 5.110251 -12.205572 0
M  V30 44 H 8.128038 4.111500 -12.034031 0
M  V30 45 H 9.069087 8.077012 -10.152599 0
M  V30 46 H 3.361060 8.210520 -16.266780 0
M  V30 47 H 5.282726 7.270101 -15.047622 0
M  V30 48 H 8.204430 7.132172 -11.916784 0
M  V30 END ATOM
M  V30 BEGIN BOND
M  V30 1 1 4 1
M  V30 2 1 7 4
M  V30 3 1 7 5
M  V30 4 1 8 1
M  V30 5 1 8 5
M  V30 6 1 9 6
M  V30 7 2 10 6
M  V30 8 1 12 3
M  V30 9 1 14 2
M  V30 10 1 14 10
M  V30 11 2 14 13
M  V30 12 2 17 9
M  V30 13 1 17 13
M  V30 14 1 18 6
M  V30 15 1 19 2
M  V30 16 1 19 11
M  V30 17 2 19 12
M  V30 18 2 20 16
M  V30 19 1 21 4
M  V30 20 1 21 15
M  V30 21 1 21 20
M  V30 22 2 22 3
M  V30 23 2 23 2
M  V30 24 1 23 22
M  V30 25 1 24 18
M  V30 26 1 24 20
M  V30 27 1 25 17
M  V30 28 1 26 3
M  V30 29 1 4 27 CFG=3
M  V30 30 1 28 5
M  V30 31 1 29 5
M  V30 32 1 30 7
M  V30 33 1 31 7
M  V30 34 1 32 8
M  V30 35 1 33 8
M  V30 36 1 34 9
M  V30 37 1 35 11
M  V30 38 1 36 11
M  V30 39 1 37 11
M  V30 40 1 38 12
M  V30 41 1 39 13
M  V30 42 1 40 15
M  V30 43 1 41 15
M  V30 44 1 42 15
M  V30 45 1 43 18
M  V30 46 1 44 18
M  V30 47 1 21 45 CFG=3
M  V30 48 1 46 22
M  V30 49 1 47 23
M  V30 50 1 48 24
M  V30 END BOND
M  V30 END CTAB
M  END
>  <i_epik_Tot_Q>  (1) 
0

>  <i_epik_Tot_abs_Q>  (1) 
0

>  <i_i_glide_confnum>  (1) 
30

>  <i_i_glide_lignum>  (1) 
58

>  <i_i_glide_posenum>  (1) 
105

>  <i_i_glide_rotatable_bonds>  (1) 
6

>  <i_lp_mmshare_version>  (1) 
72125

>  <i_m_source_file_index>  (1) 
35

>  <i_f3d_flags>  (1) 
0

>  <num_sample>  (1) 
100

>  <b_lp_Chiralities_Consistent>  (1) 
1

>  <r_epik_Charging_Adjusted_Penalty>  (1) 
0

>  <r_epik_Ionization_Penalty>  (1) 
0.00017143064018834461

>  <r_epik_Ionization_Penalty_Charging>  (1) 
0

>  <r_epik_Ionization_Penalty_Neutral>  (1) 
0.00017143064018834461

>  <r_epik_State_Penalty>  (1) 
-0

>  <r_glide_ring_energy>  (1) 
0.40000894868762399

>  <r_i_docking_score>  (1) 
-5.0256151714598207

>  <r_i_glide_ecoul>  (1) 
-1.3394414981569802

>  <r_i_glide_eff_state_penalty>  (1) 
-0

>  <r_i_glide_einternal>  (1) 
5.8268546615946057

>  <r_i_glide_emodel>  (1) 
-31.31041962950394

>  <r_i_glide_emodel_strain>  (1) 
0.94384074170229582

>  <r_i_glide_energy>  (1) 
-25.804387603726507

>  <r_i_glide_erotb>  (1) 
0.74388536090720081

>  <r_i_glide_esite>  (1) 
-0.12706420783927266

>  <r_i_glide_evdw>  (1) 
-24.464946105569528

>  <r_i_glide_gscore>  (1) 
-5.0256151714598207

>  <r_i_glide_gscore_strain>  (1) 
0

>  <r_i_glide_hbond>  (1) 
0

>  <r_i_glide_ligand_efficiency>  (1) 
-0.20102460685839282

>  <r_i_glide_ligand_efficiency_ln>  (1) 
-1.1912214011695457

>  <r_i_glide_ligand_efficiency_sa>  (1) 
-0.58779951627120841

>  <r_i_glide_lipo>  (1) 
-2.4737091409336118

>  <r_i_glide_metal>  (1) 
-0

>  <r_i_glide_rewards>  (1) 
-1.744563653592113

>  <r_lp_Energy>  (1) 
20.281278999999998

>  <r_lp_tautomer_probability>  (1) 
1

>  <s_epik_cmdline>  (1) 
J2VwaWtfcHl0aG9uJywgJy1waHQnLCAnMS4wJywgJy1waCcsICc3LjQnLCAnLXRuJywgJzgnLCAnLW1hJywgJzUwMCcsICctaW1hZScsICc8aW5maWxlLm1hZT4nLCAnLW9tYWUnLCAnPG91dGZpbGUubWFlPic=

>  <s_epik_input>  (1) 
W0NIMl0xW0NIMl1bQ0gyXU9bQ0BIXTFbQ0BIXShbQ0gzXSlDKD1PKVtOSF1bQ0gyXWMyW2NIXWMoQ2wpW2NIXWMobjIpLWMzYyhbQ0gzXSlbY0hdW2NIXVtjSF1bY0hdMw==

>  <s_glide_docking_method>  (1) 
confgen

>  <s_i_glide_gridfile>  (1) 
gpcr_drd2_6luq_protein_autoprepared_prepared

>  <s_lp_Force_Field>  (1) 
S-OPLS

>  <s_lp_Variant>  (1) 
DiffSBDD_34-2

>  <s_m_source_file>  (1) 
generated_generic_title2_ligand_DiffSBDD_2026-06-23_prepared.sdf

>  <GenAI_Model>  (1) 
DiffSBDD

>  <Protein>  (1) 
generic_title2

$$$$
DiffSBDD_13
     RDKit          3D

  0  0  0  0  0  0  0  0  0  0999 V3000
M  V30 BEGIN CTAB
M  V30 COUNTS 57 60 0 0 1
M  V30 BEGIN ATOM
M  V30 1 C 7.731303 2.685975 -15.647632 0
M  V30 2 N 8.975410 8.672202 -7.985005 0 CHG=1
M  V30 3 N 6.975393 2.489321 -14.527444 0
M  V30 4 C 6.923491 3.665150 -12.338970 0 CFG=1
M  V30 5 N 6.148078 4.390209 -11.362339 0
M  V30 6 C 10.373285 6.798460 -8.841910 0 CFG=2
M  V30 7 N 8.047669 3.825301 -16.272440 0
M  V30 8 C 11.458461 8.333744 -6.488185 0
M  V30 9 C 8.738478 7.711202 -12.206995 0
M  V30 10 C 9.661706 6.670533 -10.199760 0
M  V30 11 C 8.760296 3.228632 -17.228536 0
M  V30 12 F 10.274480 5.708309 -19.190534 0
M  V30 13 C 8.175297 1.584482 -16.140682 0
M  V30 14 C 10.231246 7.418562 -6.354491 0
M  V30 15 C 6.306521 3.508253 -13.732400 0
M  V30 16 C 12.369615 7.775133 -7.585023 0
M  V30 17 C 8.973186 1.626334 -17.320105 0
M  V30 18 C 7.708148 0.524856 -15.305349 0
M  V30 19 C 9.286028 5.398472 -10.693752 0
M  V30 20 O 9.396936 3.904550 -18.246468 0
M  V30 21 C 9.479716 7.332067 -7.688632 0 CFG=1
M  V30 22 F 8.368694 5.914823 -18.159442 0
M  V30 23 F 10.244762 5.590299 -17.016833 0
M  V30 24 C 6.958009 1.113158 -14.301141 0
M  V30 25 C 9.554607 5.253720 -18.136396 0
M  V30 26 O 7.772873 6.350648 -13.923006 0
M  V30 27 C 11.668658 7.641137 -8.943873 0
M  V30 28 C 8.375350 6.448994 -12.705216 0
M  V30 29 O 8.279100 4.046590 -12.429382 0
M  V30 30 C 9.382224 7.822515 -10.963537 0
M  V30 31 C 8.641819 5.287795 -11.948598 0
M  V30 32 H 9.719951 9.283596 -8.277277 0
M  V30 33 H 8.295126 8.531980 -8.739867 0
M  V30 34 H 6.973494 2.645283 -11.985024 0
M  V30 35 H 6.178654 5.389032 -11.519655 0
M  V30 36 H 5.175131 4.123165 -11.370419 0
M  V30 37 H 10.667772 5.789590 -8.550451 0
M  V30 38 H 11.985545 8.390156 -5.535084 0
M  V30 39 H 11.172461 9.359853 -6.719083 0
M  V30 40 H 8.529273 8.598447 -12.785000 0
M  V30 41 H 10.534741 6.420830 -6.032331 0
M  V30 42 H 9.563558 7.799189 -5.584960 0
M  V30 43 H 5.273907 3.192083 -13.585022 0
M  V30 44 H 6.267835 4.451221 -14.270381 0
M  V30 45 H 12.651485 6.790236 -7.221689 0
M  V30 46 H 13.274709 8.376736 -7.679304 0
M  V30 47 H 10.011294 1.327281 -17.177280 0
M  V30 48 H 8.495392 1.185170 -18.195024 0
M  V30 49 H 7.889831 -0.534496 -15.419761 0
M  V30 50 H 9.492273 4.509570 -10.115499 0
M  V30 51 H 8.616566 6.675228 -7.566723 0
M  V30 52 H 6.420526 0.688559 -13.465380 0
M  V30 53 H 7.815489 5.466978 -14.261438 0
M  V30 54 H 12.349784 7.190203 -9.664813 0
M  V30 55 H 11.463197 8.642545 -9.320289 0
M  V30 56 H 9.660917 8.790211 -10.595406 0
M  V30 57 H 8.485292 9.037079 -7.182931 0
M  V30 END ATOM
M  V30 BEGIN BOND
M  V30 1 1 3 1
M  V30 2 1 5 4
M  V30 3 1 7 1
M  V30 4 1 10 6
M  V30 5 2 11 7
M  V30 6 2 13 1
M  V30 7 1 14 8
M  V30 8 1 15 3
M  V30 9 1 15 4
M  V30 10 1 16 8
M  V30 11 1 17 11
M  V30 12 1 17 13
M  V30 13 1 18 13
M  V30 14 2 19 10
M  V30 15 1 20 11
M  V30 16 1 21 2
M  V30 17 1 21 6
M  V30 18 1 21 14
M  V30 19 1 24 3
M  V30 20 2 24 18
M  V30 21 1 25 12
M  V30 22 1 25 20
M  V30 23 1 25 22
M  V30 24 1 25 23
M  V30 25 1 27 6
M  V30 26 1 27 16
M  V30 27 1 28 9
M  V30 28 1 28 26
M  V30 29 1 29 4
M  V30 30 2 30 9
M  V30 31 1 30 10
M  V30 32 1 31 19
M  V30 33 2 31 28
M  V30 34 1 31 29
M  V30 35 1 32 2
M  V30 36 1 33 2
M  V30 37 1 4 34 CFG=1
M  V30 38 1 35 5
M  V30 39 1 36 5
M  V30 40 1 6 37 CFG=1
M  V30 41 1 38 8
M  V30 42 1 39 8
M  V30 43 1 40 9
M  V30 44 1 41 14
M  V30 45 1 42 14
M  V30 46 1 43 15
M  V30 47 1 44 15
M  V30 48 1 45 16
M  V30 49 1 46 16
M  V30 50 1 47 17
M  V30 51 1 48 17
M  V30 52 1 49 18
M  V30 53 1 50 19
M  V30 54 1 21 51 CFG=1
M  V30 55 1 52 24
M  V30 56 1 53 26
M  V30 57 1 54 27
M  V30 58 1 55 27
M  V30 59 1 56 30
M  V30 60 1 57 2
M  V30 END BOND
M  V30 END CTAB
M  END
>  <i_epik_Tot_Q>  (1) 
1

>  <i_epik_Tot_abs_Q>  (1) 
1

>  <i_i_glide_confnum>  (1) 
145

>  <i_i_glide_lignum>  (1) 
25

>  <i_i_glide_posenum>  (1) 
241

>  <i_i_glide_rotatable_bonds>  (1) 
8

>  <i_lp_mmshare_version>  (1) 
72125

>  <i_m_source_file_index>  (1) 
14

>  <i_f3d_flags>  (1) 
0

>  <num_sample>  (1) 
100

>  <b_lp_Chiralities_Consistent>  (1) 
1

>  <r_epik_Charging_Adjusted_Penalty>  (1) 
0.0019488154280528094

>  <r_epik_Ionization_Penalty>  (1) 
0.0073063651558797956

>  <r_epik_Ionization_Penalty_Charging>  (1) 
0.0019488154280528094

>  <r_epik_Ionization_Penalty_Neutral>  (1) 
0.0053575497278269858

>  <r_epik_State_Penalty>  (1) 
-0

>  <r_glide_ring_energy>  (1) 
0

>  <r_i_docking_score>  (1) 
-5.0243541066352666

>  <r_i_glide_ecoul>  (1) 
-2.8499201654243587

>  <r_i_glide_eff_state_penalty>  (1) 
-0

>  <r_i_glide_einternal>  (1) 
8.2935159724392911

>  <r_i_glide_emodel>  (1) 
-38.929988280206253

>  <r_i_glide_emodel_strain>  (1) 
0.38379828435944319

>  <r_i_glide_energy>  (1) 
-32.13540350129859

>  <r_i_glide_erotb>  (1) 
0.62006314658017736

>  <r_i_glide_esite>  (1) 
-0.086342054391729137

>  <r_i_glide_evdw>  (1) 
-29.285483335874233

>  <r_i_glide_gscore>  (1) 
-5.0243541066352666

>  <r_i_glide_gscore_strain>  (1) 
0

>  <r_i_glide_hbond>  (1) 
-0.20000000000000001

>  <r_i_glide_ligand_efficiency>  (1) 
-0.16207593892371827

>  <r_i_glide_ligand_efficiency_ln>  (1) 
-1.1331458290075673

>  <r_i_glide_ligand_efficiency_sa>  (1) 
-0.50914221875313781

>  <r_i_glide_lipo>  (1) 
-1.5694439204180635

>  <r_i_glide_metal>  (1) 
-0

>  <r_i_glide_rewards>  (1) 
-1.8968690867982858

>  <r_lp_Energy>  (1) 
39.564299999999996

>  <r_lp_tautomer_probability>  (1) 
1

>  <s_epik_Chemistry_Notes>  (1) 
This compound has an imine and may undergo hydrolysis. This compound contains an acetal/aminal-like group ( X-CH(R)-Y where X, Y are N, S, or O) that may be acid/base labile, releasing an aldehyde.

>  <s_epik_cmdline>  (1) 
J2VwaWtfcHl0aG9uJywgJy1waHQnLCAnMS4wJywgJy1waCcsICc3LjQnLCAnLXRuJywgJzgnLCAnLW1hJywgJzUwMCcsICctaW1hZScsICc8aW5maWxlLm1hZT4nLCAnLW9tYWUnLCAnPG91dGZpbGUubWFlPic=

>  <s_epik_input>  (1) 
RkMoRikoRilPQyg9TjEpW0NIMl1jKGMxMilbY0hdW2NIXW4yW0NIMl1bQ0BIXShbTkgyXSlPYyhjKFtPSF0pW2NIXVtjSF0zKVtjSF1jM1tDQEBIXTRbQ0BIXShbTkgyXSlbQ0gyXVtDSDJdW0NIMl1bQ0gyXTQ=

>  <s_glide_docking_method>  (1) 
confgen

>  <s_i_glide_gridfile>  (1) 
gpcr_drd2_6luq_protein_autoprepared_prepared

>  <s_lp_Force_Field>  (1) 
S-OPLS

>  <s_lp_Variant>  (1) 
DiffSBDD_13-1

>  <s_m_source_file>  (1) 
generated_generic_title2_ligand_DiffSBDD_2026-06-23_prepared.sdf

>  <GenAI_Model>  (1) 
DiffSBDD

>  <Protein>  (1) 
generic_title2

$$$$
DiffSBDD_91
     RDKit          3D

  0  0  0  0  0  0  0  0  0  0999 V3000
M  V30 BEGIN CTAB
M  V30 COUNTS 54 54 0 0 1
M  V30 BEGIN ATOM
M  V30 1 O 10.697410 9.200754 -6.114838 0 CHG=-1
M  V30 2 C 7.392835 4.947147 -15.653829 0
M  V30 3 O 5.563064 3.589203 -13.227086 0
M  V30 4 F 6.107589 5.190182 -15.410581 0
M  V30 5 C 7.230353 2.389047 -15.715775 0
M  V30 6 C 6.648953 3.897489 -12.740876 0
M  V30 7 O 8.135422 6.762912 -12.444326 0
M  V30 8 C 11.021128 8.274916 -5.341980 0
M  V30 9 C 10.365338 6.950915 -5.694011 0 CFG=1
M  V30 10 C 9.764003 6.921500 -8.173909 0
M  V30 11 C 11.775389 8.137464 -4.281951 0
M  V30 12 C 7.965137 3.557686 -13.500035 0 CFG=2
M  V30 13 O 12.374733 6.425987 -2.785022 0
M  V30 14 N 9.536339 6.813278 -10.666751 0
M  V30 15 C 8.039204 4.887609 -10.936184 0
M  V30 16 C 12.567148 9.223869 -3.596852 0
M  V30 17 F 8.128768 5.967661 -15.217393 0
M  V30 18 C 12.136737 9.455128 -2.143321 0
M  V30 19 C 10.727842 6.430434 -7.080653 0
M  V30 20 C 7.900346 3.614003 -15.060362 0 CFG=2
M  V30 21 C 11.775410 6.836096 -3.778291 0
M  V30 22 O 10.963218 6.083635 -4.606590 0
M  V30 23 N 6.748943 4.532802 -11.540728 0
M  V30 24 C 5.543527 4.897933 -10.799895 0
M  V30 25 O 12.975434 8.790223 -1.232743 0
M  V30 26 C 10.229382 6.330740 -9.489445 0
M  V30 27 O 10.090863 7.990227 -11.185001 0
M  V30 28 O 8.408398 2.269343 -13.102974 0
M  V30 29 C 8.575332 6.246894 -11.414611 0
M  V30 30 H 7.500331 4.946386 -16.738650 0
M  V30 31 H 6.238482 2.194453 -15.317232 0
M  V30 32 H 7.143268 2.516776 -16.794367 0
M  V30 33 H 7.819952 1.487275 -15.547821 0
M  V30 34 H 9.284061 6.995553 -5.584968 0
M  V30 35 H 9.754079 8.008957 -8.234641 0
M  V30 36 H 8.740854 6.611160 -7.957761 0
M  V30 37 H 8.758898 4.256339 -13.252346 0
M  V30 38 H 8.792978 4.109765 -11.060826 0
M  V30 39 H 7.889951 4.945414 -9.856784 0
M  V30 40 H 13.632355 9.084366 -3.720733 0
M  V30 41 H 12.341081 10.119254 -4.168233 0
M  V30 42 H 12.175343 10.515909 -1.922349 0
M  V30 43 H 11.113480 9.128227 -1.985585 0
M  V30 44 H 10.707116 5.343697 -7.077154 0
M  V30 45 H 11.757980 6.707081 -7.310262 0
M  V30 46 H 8.935676 3.590053 -15.400798 0
M  V30 47 H 4.836421 5.408140 -11.450453 0
M  V30 48 H 5.066864 4.009833 -10.385106 0
M  V30 49 H 5.765418 5.589086 -9.985026 0
M  V30 50 H 13.745640 9.339347 -1.148585 0
M  V30 51 H 10.175378 5.243704 -9.435102 0
M  V30 52 H 11.278764 6.608054 -9.585016 0
M  V30 53 H 10.606694 8.323133 -10.467050 0
M  V30 54 H 8.664011 2.281833 -12.191100 0
M  V30 END ATOM
M  V30 BEGIN BOND
M  V30 1 1 4 2
M  V30 2 2 6 3
M  V30 3 1 8 1
M  V30 4 1 9 8
M  V30 5 2 11 8
M  V30 6 1 12 6
M  V30 7 1 16 11
M  V30 8 1 17 2
M  V30 9 1 18 16
M  V30 10 1 19 9
M  V30 11 1 19 10
M  V30 12 1 20 2
M  V30 13 1 20 5
M  V30 14 1 20 12
M  V30 15 1 21 11
M  V30 16 2 21 13
M  V30 17 1 22 9
M  V30 18 1 22 21
M  V30 19 1 23 6
M  V30 20 1 23 15
M  V30 21 1 24 23
M  V30 22 1 25 18
M  V30 23 1 26 10
M  V30 24 1 26 14
M  V30 25 1 27 14
M  V30 26 1 28 12
M  V30 27 2 29 7
M  V30 28 1 29 14
M  V30 29 1 29 15
M  V30 30 1 30 2
M  V30 31 1 31 5
M  V30 32 1 32 5
M  V30 33 1 33 5
M  V30 34 1 9 34 CFG=3
M  V30 35 1 35 10
M  V30 36 1 36 10
M  V30 37 1 12 37 CFG=1
M  V30 38 1 38 15
M  V30 39 1 39 15
M  V30 40 1 40 16
M  V30 41 1 41 16
M  V30 42 1 42 18
M  V30 43 1 43 18
M  V30 44 1 44 19
M  V30 45 1 45 19
M  V30 46 1 20 46 CFG=3
M  V30 47 1 47 24
M  V30 48 1 48 24
M  V30 49 1 49 24
M  V30 50 1 50 25
M  V30 51 1 51 26
M  V30 52 1 52 26
M  V30 53 1 53 27
M  V30 54 1 54 28
M  V30 END BOND
M  V30 END CTAB
M  END
>  <i_epik_Tot_Q>  (1) 
-1

>  <i_epik_Tot_abs_Q>  (1) 
1

>  <i_i_glide_confnum>  (1) 
2349

>  <i_i_glide_lignum>  (1) 
174

>  <i_i_glide_posenum>  (1) 
221

>  <i_i_glide_rotatable_bonds>  (1) 
16

>  <i_lp_mmshare_version>  (1) 
72125

>  <i_m_source_file_index>  (1) 
92

>  <i_f3d_flags>  (1) 
0

>  <num_sample>  (1) 
100

>  <b_lp_Chiralities_Consistent>  (1) 
1

>  <r_epik_Charging_Adjusted_Penalty>  (1) 
7.0624640006874639e-05

>  <r_epik_Ionization_Penalty>  (1) 
0.026986969757343576

>  <r_epik_Ionization_Penalty_Charging>  (1) 
7.0624640006874639e-05

>  <r_epik_Ionization_Penalty_Neutral>  (1) 
0.026916345117336701

>  <r_epik_State_Penalty>  (1) 
-0

>  <r_glide_ring_energy>  (1) 
0

>  <r_i_docking_score>  (1) 
-5.0218580487498077

>  <r_i_glide_ecoul>  (1) 
-6.3347856525073221

>  <r_i_glide_eff_state_penalty>  (1) 
-0

>  <r_i_glide_einternal>  (1) 
14.685168043031076

>  <r_i_glide_emodel>  (1) 
-38.000945297016131

>  <r_i_glide_emodel_strain>  (1) 
1.5633119479955155

>  <r_i_glide_energy>  (1) 
-34.865419488093401

>  <r_i_glide_erotb>  (1) 
1.3267024169305881

>  <r_i_glide_esite>  (1) 
-0.14563011396945696

>  <r_i_glide_evdw>  (1) 
-28.53063383558608

>  <r_i_glide_gscore>  (1) 
-5.0218580487498077

>  <r_i_glide_gscore_strain>  (1) 
0

>  <r_i_glide_hbond>  (1) 
-0.24029870261342545

>  <r_i_glide_ligand_efficiency>  (1) 
-0.17316751892240717

>  <r_i_glide_ligand_efficiency_ln>  (1) 
-1.1498781498310731

>  <r_i_glide_ligand_efficiency_sa>  (1) 
-0.53202548204758393

>  <r_i_glide_lipo>  (1) 
-1.9400509976839595

>  <r_i_glide_metal>  (1) 
-0

>  <r_i_glide_rewards>  (1) 
-1.645831111758151

>  <r_lp_Energy>  (1) 
6.6003359999999995

>  <r_lp_tautomer_probability>  (1) 
1

>  <s_epik_Chemistry_Notes>  (1) 
This compound has an ester and may undergo hydrolysis at high or low pH. This compound has a N-S or N-O group and may undergo hydrolysis at high or low pH.

>  <s_epik_cmdline>  (1) 
J2VwaWtfcHl0aG9uJywgJy1waHQnLCAnMS4wJywgJy1waCcsICc3LjQnLCAnLXRuJywgJzgnLCAnLW1hJywgJzUwMCcsICctaW1hZScsICc8aW5maWxlLm1hZT4nLCAnLW9tYWUnLCAnPG91dGZpbGUubWFlPic=

>  <s_epik_input>  (1) 
W09IXVtDSDJdW0NIMl1bQ0BASF0xQyg9TylPW0NAQEhdKEMxPU8pW0NIMl1bQ0gyXVtDSDJdTihbT0hdKUMoPU8pW0NIMl1OKFtDSDNdKUMoPU8pW0NAQEhdKFtPSF0pW0NASF0oW0NIXShGKUYpW0NIM10=

>  <s_glide_docking_method>  (1) 
confgen

>  <s_i_glide_gridfile>  (1) 
gpcr_drd2_6luq_protein_autoprepared_prepared

>  <s_lp_Force_Field>  (1) 
S-OPLS

>  <s_lp_Variant>  (1) 
DiffSBDD_91-1

>  <s_m_source_file>  (1) 
generated_generic_title2_ligand_DiffSBDD_2026-06-23_prepared.sdf

>  <GenAI_Model>  (1) 
DiffSBDD

>  <Protein>  (1) 
generic_title2

$$$$
DiffSBDD_90
     RDKit          3D

  0  0  0  0  0  0  0  0  0  0999 V3000
M  V30 BEGIN CTAB
M  V30 COUNTS 80 84 0 0 1
M  V30 BEGIN ATOM
M  V30 1 C 6.227695 6.374686 -17.217496 0
M  V30 2 C 6.852872 4.995358 -17.425098 0 CFG=1
M  V30 3 C 10.148538 5.613075 -18.865466 0
M  V30 4 C 9.262907 7.045156 -11.861999 0 CFG=2
M  V30 5 C 8.286435 4.760735 -19.627906 0
M  V30 6 C 11.525180 6.046043 -18.917013 0 CFG=2
M  V30 7 C 7.207252 5.438127 -13.670238 0 CFG=2
M  V30 8 O 5.374777 7.276886 -15.309187 0 CHG=-1
M  V30 9 C 6.451660 6.720554 -15.735699 0 CFG=1
M  V30 10 C 9.688452 4.973011 -10.464698 0
M  V30 11 O 12.357857 8.106645 -10.386491 0
M  V30 12 C 8.064636 5.108933 -18.306023 0
M  V30 13 C 8.320129 3.607569 -15.701473 0 CFG=2
M  V30 14 O 11.847433 8.751063 -8.303119 0 CHG=-1
M  V30 15 O 9.304453 8.339896 -11.973610 0 CHG=-1
M  V30 16 C 6.927703 6.682983 -12.739500 0 CFG=2
M  V30 17 N 7.850422 6.788686 -11.585638 0 CHG=1
M  V30 18 N 6.543578 5.444544 -15.014463 0 CFG=1 CHG=1
M  V30 19 C 9.635321 7.565053 -7.164474 0
M  V30 20 C 5.509363 6.721976 -12.174146 0
M  V30 21 O 8.877203 2.834286 -16.753842 0
M  V30 22 O 5.258940 7.976933 -11.584991 0
M  V30 23 O 7.424291 1.714247 -13.477403 0
M  V30 24 C 6.975479 3.057116 -15.388488 0 CFG=1
M  V30 25 C 11.643339 8.111922 -9.359897 0
M  V30 26 C 7.002495 4.056600 -12.976756 0
M  V30 27 N 9.583500 5.101810 -19.889244 0
M  V30 28 O 9.384432 8.735873 -6.886325 0
M  V30 29 C 11.716537 5.609976 -20.448696 0
M  V30 30 N 9.263836 5.641456 -17.875043 0 CHG=1
M  V30 31 C 10.152930 6.437214 -10.746488 0 CFG=2
M  V30 32 O 13.635291 6.583452 -16.574000 0
M  V30 33 O 12.384460 5.308193 -18.056199 0
M  V30 34 C 12.504110 5.794918 -16.754264 0
M  V30 35 C 10.070775 6.590137 -6.072695 0
M  V30 36 C 10.375790 7.190841 -9.403610 0
M  V30 37 C 6.687729 2.842901 -13.901569 0 CFG=2
M  V30 38 C 13.548787 7.882171 -17.134246 0
M  V30 39 N 9.558428 6.989075 -8.418004 0
M  V30 40 C 10.371757 4.984371 -21.067770 0
M  V30 41 C 7.084279 4.457082 -16.001830 0 CFG=1
M  V30 42 H 6.632742 7.144642 -17.875948 0
M  V30 43 H 5.163449 6.299318 -17.452273 0
M  V30 44 H 6.169453 4.338871 -17.958666 0
M  V30 45 H 9.563988 6.444834 -12.712730 0
M  V30 46 H 7.639343 4.312085 -20.369010 0
M  V30 47 H 11.544385 7.127686 -18.788041 0
M  V30 48 H 8.246808 5.527555 -13.950362 0
M  V30 49 H 7.375377 7.219449 -15.583695 0
M  V30 50 H 10.175003 4.526734 -9.602172 0
M  V30 51 H 8.635497 4.899372 -10.194931 0
M  V30 52 H 9.863684 4.330059 -11.327090 0
M  V30 53 H 8.979223 3.831964 -14.881326 0
M  V30 54 H 7.083159 7.594910 -13.315038 0
M  V30 55 H 7.557630 7.549370 -10.970530 0
M  V30 56 H 5.323033 5.945956 -11.431761 0
M  V30 57 H 4.826587 6.559985 -12.992071 0
M  V30 58 H 9.082800 1.970968 -16.423199 0
M  V30 59 H 5.708481 8.003540 -10.739644 0
M  V30 60 H 7.173498 1.482475 -12.595326 0
M  V30 61 H 6.588439 2.270886 -16.035423 0
M  V30 62 H 7.893247 3.848352 -12.386217 0
M  V30 63 H 6.202300 4.103220 -12.240428 0
M  V30 64 H 12.026876 6.474513 -21.036246 0
M  V30 65 H 12.527371 4.886523 -20.533780 0
M  V30 66 H 11.096185 6.393191 -11.274410 0
M  V30 67 H 11.606984 6.309663 -16.405530 0
M  V30 68 H 12.638273 4.923757 -16.111780 0
M  V30 69 H 9.218347 5.994717 -5.747203 0
M  V30 70 H 10.847082 5.915233 -6.432927 0
M  V30 71 H 10.469717 7.126694 -5.211338 0
M  V30 72 H 5.636544 2.593331 -13.779598 0
M  V30 73 H 14.403727 8.471885 -16.811712 0
M  V30 74 H 13.572122 7.859008 -18.223627 0
M  V30 75 H 12.640362 8.387899 -16.804435 0
M  V30 76 H 10.460977 3.935304 -21.352356 0
M  V30 77 H 9.933269 5.587339 -21.864018 0
M  V30 78 H 9.447178 5.996181 -16.946417 0
M  V30 79 H 7.787666 5.951418 -11.030818 0
M  V30 80 H 5.568726 5.227042 -14.867290 0
M  V30 END ATOM
M  V30 BEGIN BOND
M  V30 1 1 2 1
M  V30 2 1 6 3
M  V30 3 1 9 1
M  V30 4 1 9 8
M  V30 5 1 12 2
M  V30 6 2 12 5
M  V30 7 1 15 4
M  V30 8 1 16 7
M  V30 9 1 17 4
M  V30 10 1 17 16
M  V30 11 1 18 7
M  V30 12 1 18 9
M  V30 13 1 20 16
M  V30 14 1 21 13
M  V30 15 1 22 20
M  V30 16 1 24 13
M  V30 17 2 25 11
M  V30 18 1 25 14
M  V30 19 1 26 7
M  V30 20 1 27 3
M  V30 21 1 27 5
M  V30 22 2 28 19
M  V30 23 1 29 6
M  V30 24 2 30 3
M  V30 25 1 30 12
M  V30 26 1 31 4
M  V30 27 1 31 10
M  V30 28 1 33 6
M  V30 29 1 34 32
M  V30 30 1 34 33
M  V30 31 1 35 19
M  V30 32 1 36 25
M  V30 33 1 36 31
M  V30 34 1 37 23
M  V30 35 1 37 24
M  V30 36 1 37 26
M  V30 37 1 38 32
M  V30 38 1 39 19
M  V30 39 2 39 36
M  V30 40 1 40 27
M  V30 41 1 40 29
M  V30 42 1 41 2 CFG=3
M  V30 43 1 41 13
M  V30 44 1 41 18
M  V30 45 1 41 24
M  V30 46 1 42 1
M  V30 47 1 43 1
M  V30 48 1 2 44 CFG=3
M  V30 49 1 4 45 CFG=3
M  V30 50 1 46 5
M  V30 51 1 6 47 CFG=3
M  V30 52 1 7 48 CFG=3
M  V30 53 1 9 49 CFG=3
M  V30 54 1 50 10
M  V30 55 1 51 10
M  V30 56 1 52 10
M  V30 57 1 13 53 CFG=1
M  V30 58 1 16 54 CFG=3
M  V30 59 1 55 17
M  V30 60 1 56 20
M  V30 61 1 57 20
M  V30 62 1 58 21
M  V30 63 1 59 22
M  V30 64 1 60 23
M  V30 65 1 24 61 CFG=3
M  V30 66 1 62 26
M  V30 67 1 63 26
M  V30 68 1 64 29
M  V30 69 1 65 29
M  V30 70 1 31 66 CFG=3
M  V30 71 1 67 34
M  V30 72 1 68 34
M  V30 73 1 69 35
M  V30 74 1 70 35
M  V30 75 1 71 35
M  V30 76 1 37 72 CFG=3
M  V30 77 1 73 38
M  V30 78 1 74 38
M  V30 79 1 75 38
M  V30 80 1 76 40
M  V30 81 1 77 40
M  V30 82 1 78 30
M  V30 83 1 79 17
M  V30 84 1 18 80 CFG=1
M  V30 END BOND
M  V30 END CTAB
M  END
>  <i_epik_Tot_Q>  (1) 
0

>  <i_epik_Tot_abs_Q>  (1) 
6

>  <i_i_glide_confnum>  (1) 
1667

>  <i_i_glide_lignum>  (1) 
168

>  <i_i_glide_posenum>  (1) 
390

>  <i_i_glide_rotatable_bonds>  (1) 
15

>  <i_lp_mmshare_version>  (1) 
72125

>  <i_m_source_file_index>  (1) 
91

>  <i_f3d_flags>  (1) 
0

>  <num_sample>  (1) 
100

>  <b_lp_Chiralities_Consistent>  (1) 
1

>  <r_epik_Charging_Adjusted_Penalty>  (1) 
0.35079833336250127

>  <r_epik_Ionization_Penalty>  (1) 
1.4702178244609605

>  <r_epik_Ionization_Penalty_Charging>  (1) 
0.099885809697688246

>  <r_epik_Ionization_Penalty_Neutral>  (1) 
1.3703320147632723

>  <r_epik_State_Penalty>  (1) 
0.25091252366481304

>  <r_glide_ring_energy>  (1) 
0

>  <r_i_docking_score>  (1) 
-5.0212277301970882

>  <r_i_glide_ecoul>  (1) 
-9.673385626837181

>  <r_i_glide_eff_state_penalty>  (1) 
0.25091252366481304

>  <r_i_glide_einternal>  (1) 
18.831560578200456

>  <r_i_glide_emodel>  (1) 
-36.009779281230465

>  <r_i_glide_emodel_strain>  (1) 
5.1829527014979249

>  <r_i_glide_energy>  (1) 
-38.023349364804474

>  <r_i_glide_erotb>  (1) 
0.57888693115673628

>  <r_i_glide_esite>  (1) 
-0.24104724474257677

>  <r_i_glide_evdw>  (1) 
-28.349963737967293

>  <r_i_glide_gscore>  (1) 
-5.2721402538619015

>  <r_i_glide_gscore_strain>  (1) 
0.29573817537448122

>  <r_i_glide_hbond>  (1) 
-0.33142411787993187

>  <r_i_glide_ligand_efficiency>  (1) 
-0.12246896902919728

>  <r_i_glide_ligand_efficiency_ln>  (1) 
-1.065270172841102

>  <r_i_glide_ligand_efficiency_sa>  (1) 
-0.42229961041837677

>  <r_i_glide_lipo>  (1) 
-1.3458990364095289

>  <r_i_glide_metal>  (1) 
-0

>  <r_i_glide_rewards>  (1) 
-1.3598889304371391

>  <r_lp_Energy>  (1) 
72.675405999999995

>  <r_lp_tautomer_probability>  (1) 
1

>  <s_epik_Chemistry_Notes>  (1) 
This compound has an imine and may undergo hydrolysis. This compound contains an acetal/aminal-like group ( X-CH(R)-Y where X, Y are N, S, or O) that may be acid/base labile, releasing an aldehyde.

>  <s_epik_cmdline>  (1) 
J2VwaWtfcHl0aG9uJywgJy1waHQnLCAnMS4wJywgJy1waCcsICc3LjQnLCAnLXRuJywgJzgnLCAnLW1hJywgJzUwMCcsICctaW1hZScsICc8aW5maWxlLm1hZT4nLCAnLW9tYWUnLCAnPG91dGZpbGUubWFlPic=

>  <s_epik_input>  (1) 
W0NIM11PW0NIMl1PW0NASF0xW0NIMl1bQ0gyXW4oYzEyKVtjSF1jKG4yKVtDQEBIXTNbQ0gyXVtDQEBIXShbT0hdKU4oW0NAQF0zNDUpW0NASF0oW0NIMl1bQ0BIXShbT0hdKVtDQEBIXTVbQ0BIXTRbT0hdKVtDQEBIXShbQ0gyXVtPSF0pW05IXVtDQEBIXShbT0hdKVtDQEhdKFtDSDNdKUMoXEMoPU8pW09IXSk9TlxDKD1PKVtDSDNd

>  <s_glide_docking_method>  (1) 
confgen

>  <s_i_glide_gridfile>  (1) 
gpcr_drd2_6luq_protein_autoprepared_prepared

>  <s_lp_Force_Field>  (1) 
S-OPLS

>  <s_lp_Variant>  (1) 
DiffSBDD_90-3

>  <s_m_source_file>  (1) 
generated_generic_title2_ligand_DiffSBDD_2026-06-23_prepared.sdf

>  <GenAI_Model>  (1) 
DiffSBDD

>  <Protein>  (1) 
generic_title2

$$$$
DiffSBDD_90
     RDKit          3D

  0  0  0  0  0  0  0  0  0  0999 V3000
M  V30 BEGIN CTAB
M  V30 COUNTS 80 84 0 0 1
M  V30 BEGIN ATOM
M  V30 1 C 7.440541 6.957218 -13.498518 0
M  V30 2 C 8.594660 6.055943 -13.054355 0 CFG=1
M  V30 3 C 10.016526 7.665272 -10.085442 0
M  V30 4 C 9.201690 4.398487 -18.121103 0 CFG=2
M  V30 5 C 10.833694 6.915281 -11.971581 0
M  V30 6 C 10.056126 8.279898 -8.775050 0 CFG=2
M  V30 7 C 7.035639 3.503687 -14.997910 0 CFG=2
M  V30 8 O 7.067481 6.240417 -15.649654 0 CHG=-1
M  V30 9 C 6.617857 6.056837 -14.442659 0 CFG=1
M  V30 10 C 8.570640 6.670462 -19.238895 0
M  V30 11 O 12.554951 5.927310 -20.824555 0
M  V30 12 C 9.473482 6.670312 -11.997047 0
M  V30 13 C 7.250844 4.140805 -11.677725 0 CFG=2
M  V30 14 O 10.354403 5.660385 -21.171119 0 CHG=-1
M  V30 15 O 8.642198 3.821831 -19.152122 0 CHG=-1
M  V30 16 C 8.193741 3.357017 -16.065863 0 CFG=2
M  V30 17 N 8.086012 4.358002 -17.157094 0 CHG=1
M  V30 18 N 6.962327 4.660783 -14.042358 0 CFG=2 CHG=1
M  V30 19 C 12.070565 6.140109 -16.740209 0
M  V30 20 C 8.202648 1.952510 -16.775917 0
M  V30 21 O 7.656074 4.712825 -10.455328 0
M  V30 22 O 8.575202 0.836428 -16.004538 0
M  V30 23 O 7.775370 0.877801 -12.477642 0
M  V30 24 C 8.338112 3.325411 -12.368115 0 CFG=1
M  V30 25 C 11.360723 5.838767 -20.453905 0
M  V30 26 C 6.811400 2.264831 -14.121441 0
M  V30 27 N 11.081453 7.531510 -10.774102 0
M  V30 28 O 11.226649 5.590261 -16.030763 0
M  V30 29 C 11.602791 8.709566 -8.924952 0
M  V30 30 N 9.002157 7.165144 -10.786957 0 CHG=1
M  V30 31 C 9.626750 5.855609 -18.451154 0 CFG=2
M  V30 32 O 10.175393 8.907766 -6.129033 0
M  V30 33 O 9.778284 7.319078 -7.758569 0
M  V30 34 C 10.306713 7.573566 -6.496962 0
M  V30 35 C 13.233508 6.890661 -16.099046 0
M  V30 36 C 11.120360 5.967411 -18.945090 0
M  V30 37 C 8.018850 2.063018 -13.194629 0 CFG=2
M  V30 38 C 11.166994 9.352983 -5.218144 0
M  V30 39 N 12.106448 6.164311 -18.128697 0
M  V30 40 C 12.287148 8.024176 -10.193741 0
M  V30 41 C 7.923640 4.691450 -12.924945 0 CFG=1
M  V30 42 H 6.833714 7.228798 -12.633053 0
M  V30 43 H 7.775056 7.888380 -13.959820 0
M  V30 44 H 9.249492 5.947993 -13.920090 0
M  V30 45 H 10.066320 3.945748 -17.633257 0
M  V30 46 H 11.609325 6.712478 -12.697324 0
M  V30 47 H 9.372176 9.128586 -8.755759 0
M  V30 48 H 6.175410 3.646466 -15.585031 0
M  V30 49 H 5.562998 6.195317 -14.200860 0
M  V30 50 H 9.005623 7.590222 -19.610065 0
M  V30 51 H 8.177334 6.140018 -20.105934 0
M  V30 52 H 7.716673 6.921322 -18.609787 0
M  V30 53 H 6.215289 3.804055 -11.690663 0
M  V30 54 H 9.137557 3.590222 -15.585053 0
M  V30 55 H 7.296351 4.144726 -17.745539 0
M  V30 56 H 8.936833 1.911256 -17.576402 0
M  V30 57 H 7.239825 1.752516 -17.248493 0
M  V30 58 H 6.987627 4.564140 -9.798572 0
M  V30 59 H 7.801209 0.408250 -15.666917 0
M  V30 60 H 8.470069 0.790208 -11.827902 0
M  V30 61 H 9.292639 3.277391 -11.845245 0
M  V30 62 H 5.909399 2.394258 -13.522164 0
M  V30 63 H 6.585522 1.377926 -14.709367 0
M  V30 64 H 11.619416 9.783502 -9.114869 0
M  V30 65 H 12.203426 8.576773 -8.028041 0
M  V30 66 H 9.585828 6.390226 -17.511728 0
M  V30 67 H 9.779845 6.951962 -5.771235 0
M  V30 68 H 11.351577 7.256022 -6.498129 0
M  V30 69 H 13.035506 7.962476 -16.110686 0
M  V30 70 H 13.376949 6.576557 -15.065147 0
M  V30 71 H 14.161595 6.705994 -16.641576 0
M  V30 72 H 8.915803 1.835136 -13.755451 0
M  V30 73 H 10.953144 10.378398 -4.914889 0
M  V30 74 H 11.193844 8.733537 -4.323445 0
M  V30 75 H 12.156378 9.340879 -5.677142 0
M  V30 76 H 12.920417 7.190246 -9.909392 0
M  V30 77 H 12.807850 8.722776 -10.846377 0
M  V30 78 H 8.025335 7.159244 -10.470246 0
M  V30 79 H 7.890787 5.270717 -16.712869 0
M  V30 80 H 6.111951 4.425279 -13.554687 0
M  V30 END ATOM
M  V30 BEGIN BOND
M  V30 1 1 2 1
M  V30 2 1 6 3
M  V30 3 1 9 1
M  V30 4 1 9 8
M  V30 5 1 12 2
M  V30 6 2 12 5
M  V30 7 1 15 4
M  V30 8 1 16 7
M  V30 9 1 17 4
M  V30 10 1 17 16
M  V30 11 1 18 7
M  V30 12 1 18 9
M  V30 13 1 20 16
M  V30 14 1 21 13
M  V30 15 1 22 20
M  V30 16 1 24 13
M  V30 17 2 25 11
M  V30 18 1 25 14
M  V30 19 1 26 7
M  V30 20 1 27 3
M  V30 21 1 27 5
M  V30 22 2 28 19
M  V30 23 1 29 6
M  V30 24 2 30 3
M  V30 25 1 30 12
M  V30 26 1 31 4
M  V30 27 1 31 10
M  V30 28 1 33 6
M  V30 29 1 34 32
M  V30 30 1 34 33
M  V30 31 1 35 19
M  V30 32 1 36 25
M  V30 33 1 36 31
M  V30 34 1 37 23
M  V30 35 1 37 24
M  V30 36 1 37 26
M  V30 37 1 38 32
M  V30 38 1 39 19
M  V30 39 2 39 36
M  V30 40 1 40 27
M  V30 41 1 40 29
M  V30 42 1 41 2 CFG=1
M  V30 43 1 41 13
M  V30 44 1 41 18
M  V30 45 1 41 24
M  V30 46 1 42 1
M  V30 47 1 43 1
M  V30 48 1 2 44 CFG=3
M  V30 49 1 4 45 CFG=1
M  V30 50 1 46 5
M  V30 51 1 6 47 CFG=3
M  V30 52 1 7 48 CFG=3
M  V30 53 1 9 49 CFG=3
M  V30 54 1 50 10
M  V30 55 1 51 10
M  V30 56 1 52 10
M  V30 57 1 13 53 CFG=3
M  V30 58 1 16 54 CFG=1
M  V30 59 1 55 17
M  V30 60 1 56 20
M  V30 61 1 57 20
M  V30 62 1 58 21
M  V30 63 1 59 22
M  V30 64 1 60 23
M  V30 65 1 24 61 CFG=1
M  V30 66 1 62 26
M  V30 67 1 63 26
M  V30 68 1 64 29
M  V30 69 1 65 29
M  V30 70 1 31 66 CFG=1
M  V30 71 1 67 34
M  V30 72 1 68 34
M  V30 73 1 69 35
M  V30 74 1 70 35
M  V30 75 1 71 35
M  V30 76 1 37 72 CFG=3
M  V30 77 1 73 38
M  V30 78 1 74 38
M  V30 79 1 75 38
M  V30 80 1 76 40
M  V30 81 1 77 40
M  V30 82 1 78 30
M  V30 83 1 79 17
M  V30 84 1 18 80 CFG=1
M  V30 END BOND
M  V30 END CTAB
M  END
>  <i_epik_Tot_Q>  (1) 
0

>  <i_epik_Tot_abs_Q>  (1) 
6

>  <i_i_glide_confnum>  (1) 
861

>  <i_i_glide_lignum>  (1) 
167

>  <i_i_glide_posenum>  (1) 
3

>  <i_i_glide_rotatable_bonds>  (1) 
15

>  <i_lp_mmshare_version>  (1) 
72125

>  <i_m_source_file_index>  (1) 
91

>  <i_f3d_flags>  (1) 
0

>  <num_sample>  (1) 
100

>  <b_lp_Chiralities_Consistent>  (1) 
1

>  <r_epik_Charging_Adjusted_Penalty>  (1) 
0.35079833336250127

>  <r_epik_Ionization_Penalty>  (1) 
1.4702178244609605

>  <r_epik_Ionization_Penalty_Charging>  (1) 
0.099885809697688246

>  <r_epik_Ionization_Penalty_Neutral>  (1) 
1.3703320147632723

>  <r_epik_State_Penalty>  (1) 
0.25091252366481304

>  <r_glide_ring_energy>  (1) 
0

>  <r_i_docking_score>  (1) 
-5.0134679459341198

>  <r_i_glide_ecoul>  (1) 
-9.9813751109284929

>  <r_i_glide_eff_state_penalty>  (1) 
0.25091252366481304

>  <r_i_glide_einternal>  (1) 
15.305055648395889

>  <r_i_glide_emodel>  (1) 
-35.384990960229921

>  <r_i_glide_emodel_strain>  (1) 
7.9146424224393002

>  <r_i_glide_energy>  (1) 
-36.375213125673575

>  <r_i_glide_erotb>  (1) 
0.57888693115673628

>  <r_i_glide_esite>  (1) 
-0.18254958499440013

>  <r_i_glide_evdw>  (1) 
-26.393838014745082

>  <r_i_glide_gscore>  (1) 
-5.2643804695989331

>  <r_i_glide_gscore_strain>  (1) 
0.97866060560982504

>  <r_i_glide_hbond>  (1) 
-0.49905567013953489

>  <r_i_glide_ligand_efficiency>  (1) 
-0.12227970599839316

>  <r_i_glide_ligand_efficiency_ln>  (1) 
-1.0636239087863351

>  <r_i_glide_ligand_efficiency_sa>  (1) 
-0.42164699037259096

>  <r_i_glide_lipo>  (1) 
-2.2423153812348793

>  <r_i_glide_metal>  (1) 
-0

>  <r_i_glide_rewards>  (1) 
-1.0811092026201512

>  <r_lp_Energy>  (1) 
74.620350999999999

>  <r_lp_tautomer_probability>  (1) 
1

>  <s_epik_Chemistry_Notes>  (1) 
This compound has an imine and may undergo hydrolysis. This compound contains an acetal/aminal-like group ( X-CH(R)-Y where X, Y are N, S, or O) that may be acid/base labile, releasing an aldehyde.

>  <s_epik_cmdline>  (1) 
J2VwaWtfcHl0aG9uJywgJy1waHQnLCAnMS4wJywgJy1waCcsICc3LjQnLCAnLXRuJywgJzgnLCAnLW1hJywgJzUwMCcsICctaW1hZScsICc8aW5maWxlLm1hZT4nLCAnLW9tYWUnLCAnPG91dGZpbGUubWFlPic=

>  <s_epik_input>  (1) 
W0NIM11PW0NIMl1PW0NASF0xW0NIMl1bQ0gyXW4oYzEyKVtjSF1jKG4yKVtDQEBIXTNbQ0gyXVtDQEBIXShbT0hdKU4oW0NAQF0zNDUpW0NASF0oW0NIMl1bQ0BIXShbT0hdKVtDQEBIXTVbQ0BIXTRbT0hdKVtDQEBIXShbQ0gyXVtPSF0pW05IXVtDQEBIXShbT0hdKVtDQEhdKFtDSDNdKUMoXEMoPU8pW09IXSk9Ti9DKD1PKVtDSDNd

>  <s_glide_docking_method>  (1) 
confgen

>  <s_i_glide_gridfile>  (1) 
gpcr_drd2_6luq_protein_autoprepared_prepared

>  <s_lp_Force_Field>  (1) 
S-OPLS

>  <s_lp_Variant>  (1) 
DiffSBDD_90-2

>  <s_m_source_file>  (1) 
generated_generic_title2_ligand_DiffSBDD_2026-06-23_prepared.sdf

>  <GenAI_Model>  (1) 
DiffSBDD

>  <Protein>  (1) 
generic_title2

$$$$
DiffSBDD_62
     RDKit          3D

  0  0  0  0  0  0  0  0  0  0999 V3000
M  V30 BEGIN CTAB
M  V30 COUNTS 64 66 0 0 1
M  V30 BEGIN ATOM
M  V30 1 C 9.897387 6.672903 -10.119864 0
M  V30 2 C 6.214612 6.807882 -15.264059 0 CFG=1
M  V30 3 C 7.433196 5.882544 -18.674945 0
M  V30 4 C 6.322746 6.047343 -17.632890 0 CFG=2
M  V30 5 C 11.442423 8.814704 -6.459813 0
M  V30 6 C 8.063952 6.347727 -13.489360 0
M  V30 7 C 8.179354 6.431947 -11.967088 0 CFG=1
M  V30 8 C 11.229416 8.567458 -4.952078 0 CFG=1
M  V30 9 O 11.838395 7.402113 -4.436403 0
M  V30 10 O 8.674298 5.492520 -14.132043 0
M  V30 11 C 7.159712 7.375978 -14.181220 0
M  V30 12 C 11.673413 9.734309 -4.094395 0
M  V30 13 C 5.500543 5.588061 -14.700240 0
M  V30 14 O 9.439473 8.637679 -7.749671 0
M  V30 15 C 7.758202 5.111352 -11.288770 0 CFG=1
M  V30 16 C 7.911060 5.173619 -9.761529 0
M  V30 17 N 10.468898 6.692124 -7.199304 0
M  V30 18 C 5.279185 7.091807 -18.066246 0
M  V30 19 C 11.377438 6.167817 -4.958050 0
M  V30 20 C 9.424010 5.834785 -7.786106 0
M  V30 21 C 11.566528 6.022725 -6.486304 0
M  V30 22 C 5.222271 7.908260 -15.718383 0
M  V30 23 O 6.975416 6.390367 -16.404402 0
M  V30 24 C 10.362047 8.038014 -7.203403 0
M  V30 25 O 6.397713 4.805221 -11.539065 0
M  V30 26 C 4.356837 7.449774 -16.902739 0
M  V30 27 C 9.627837 6.807224 -11.599426 0
M  V30 28 C 9.136071 5.942227 -9.280007 0
M  V30 29 O 10.791369 10.790229 -4.385023 0
M  V30 30 H 10.759028 7.200634 -9.743856 0
M  V30 31 H 7.031864 5.583859 -19.642746 0
M  V30 32 H 7.986571 6.812225 -18.810524 0
M  V30 33 H 8.145623 5.119487 -18.360705 0
M  V30 34 H 5.824609 5.088940 -17.535712 0
M  V30 35 H 11.306977 9.865922 -6.709596 0
M  V30 36 H 12.450220 8.575451 -6.793696 0
M  V30 37 H 7.525226 7.224020 -11.600976 0
M  V30 38 H 10.175415 8.418255 -4.785032 0
M  V30 39 H 6.555985 7.829158 -13.397596 0
M  V30 40 H 7.774933 8.169124 -14.599548 0
M  V30 41 H 12.713140 9.990247 -4.297522 0
M  V30 42 H 11.591069 9.493331 -3.033614 0
M  V30 43 H 4.819463 5.821015 -13.885151 0
M  V30 44 H 4.975426 5.190227 -15.528186 0
M  V30 45 H 6.158953 4.781250 -14.381743 0
M  V30 46 H 8.373341 4.296151 -11.674003 0
M  V30 47 H 7.935695 4.165149 -9.371813 0
M  V30 48 H 7.022494 5.590252 -9.296418 0
M  V30 49 H 5.775348 7.990221 -18.425590 0
M  V30 50 H 4.695240 6.713194 -18.905603 0
M  V30 51 H 11.991686 5.436269 -4.445609 0
M  V30 52 H 10.343184 5.990230 -4.660778 0
M  V30 53 H 9.625003 4.790288 -7.585184 0
M  V30 54 H 8.493575 6.050806 -7.257485 0
M  V30 55 H 12.540548 6.393886 -6.785026 0
M  V30 56 H 11.653044 4.985849 -6.785039 0
M  V30 57 H 4.590732 8.232933 -14.891911 0
M  V30 58 H 5.786691 8.791219 -16.019076 0
M  V30 59 H 5.869896 5.428360 -11.060009 0
M  V30 60 H 3.652288 8.224736 -17.193929 0
M  V30 61 H 3.736868 6.593736 -16.640482 0
M  V30 62 H 9.821815 7.841154 -11.888507 0
M  V30 63 H 10.353658 6.187165 -12.128515 0
M  V30 64 H 10.877793 11.019731 -5.297525 0
M  V30 END ATOM
M  V30 BEGIN BOND
M  V30 1 1 4 3
M  V30 2 1 7 6
M  V30 3 1 8 5
M  V30 4 1 9 8
M  V30 5 2 10 6
M  V30 6 1 2 11 CFG=1
M  V30 7 1 11 6
M  V30 8 1 12 8
M  V30 9 1 13 2
M  V30 10 1 15 7
M  V30 11 1 16 15
M  V30 12 1 18 4
M  V30 13 1 19 9
M  V30 14 1 20 17
M  V30 15 1 21 17
M  V30 16 1 21 19
M  V30 17 1 22 2
M  V30 18 1 23 2
M  V30 19 1 23 4
M  V30 20 1 24 5
M  V30 21 2 24 14
M  V30 22 1 24 17
M  V30 23 1 25 15
M  V30 24 1 26 18
M  V30 25 1 26 22
M  V30 26 1 27 1
M  V30 27 1 27 7
M  V30 28 2 28 1
M  V30 29 1 28 16
M  V30 30 1 28 20
M  V30 31 1 29 12
M  V30 32 1 30 1
M  V30 33 1 31 3
M  V30 34 1 32 3
M  V30 35 1 33 3
M  V30 36 1 4 34 CFG=1
M  V30 37 1 35 5
M  V30 38 1 36 5
M  V30 39 1 7 37 CFG=1
M  V30 40 1 8 38 CFG=3
M  V30 41 1 39 11
M  V30 42 1 40 11
M  V30 43 1 41 12
M  V30 44 1 42 12
M  V30 45 1 43 13
M  V30 46 1 44 13
M  V30 47 1 45 13
M  V30 48 1 15 46 CFG=3
M  V30 49 1 47 16
M  V30 50 1 48 16
M  V30 51 1 49 18
M  V30 52 1 50 18
M  V30 53 1 51 19
M  V30 54 1 52 19
M  V30 55 1 53 20
M  V30 56 1 54 20
M  V30 57 1 55 21
M  V30 58 1 56 21
M  V30 59 1 57 22
M  V30 60 1 58 22
M  V30 61 1 59 25
M  V30 62 1 60 26
M  V30 63 1 61 26
M  V30 64 1 62 27
M  V30 65 1 63 27
M  V30 66 1 64 29
M  V30 END BOND
M  V30 END CTAB
M  END
>  <i_epik_Tot_Q>  (1) 
0

>  <i_epik_Tot_abs_Q>  (1) 
0

>  <i_i_glide_confnum>  (1) 
13

>  <i_i_glide_lignum>  (1) 
99

>  <i_i_glide_posenum>  (1) 
234

>  <i_i_glide_rotatable_bonds>  (1) 
8

>  <i_lp_mmshare_version>  (1) 
72125

>  <i_m_source_file_index>  (1) 
63

>  <i_f3d_flags>  (1) 
0

>  <num_sample>  (1) 
100

>  <b_lp_Chiralities_Consistent>  (1) 
1

>  <r_epik_Charging_Adjusted_Penalty>  (1) 
0

>  <r_epik_Ionization_Penalty>  (1) 
1.687438170051347e-07

>  <r_epik_Ionization_Penalty_Charging>  (1) 
0

>  <r_epik_Ionization_Penalty_Neutral>  (1) 
1.687438170051347e-07

>  <r_epik_State_Penalty>  (1) 
-0

>  <r_glide_ring_energy>  (1) 
0

>  <r_i_docking_score>  (1) 
-5.0102325396383041

>  <r_i_glide_ecoul>  (1) 
-0.80183000724873499

>  <r_i_glide_eff_state_penalty>  (1) 
-0

>  <r_i_glide_einternal>  (1) 
3.7128852356659525

>  <r_i_glide_emodel>  (1) 
-28.45777779505265

>  <r_i_glide_emodel_strain>  (1) 
0.38272501242997237

>  <r_i_glide_energy>  (1) 
-23.339852488569349

>  <r_i_glide_erotb>  (1) 
0.7044771691270324

>  <r_i_glide_esite>  (1) 
0

>  <r_i_glide_evdw>  (1) 
-22.538022481320613

>  <r_i_glide_gscore>  (1) 
-5.0102325396383041

>  <r_i_glide_gscore_strain>  (1) 
0

>  <r_i_glide_hbond>  (1) 
0

>  <r_i_glide_ligand_efficiency>  (1) 
-0.17276663929787256

>  <r_i_glide_ligand_efficiency_ln>  (1) 
-1.1472162030420139

>  <r_i_glide_ligand_efficiency_sa>  (1) 
-0.5307938528320516

>  <r_i_glide_lipo>  (1) 
-2.5375125191497734

>  <r_i_glide_metal>  (1) 
-0

>  <r_i_glide_rewards>  (1) 
-1.9300215644622218

>  <r_lp_Energy>  (1) 
16.964938999999998

>  <r_lp_tautomer_probability>  (1) 
1

>  <s_epik_cmdline>  (1) 
J2VwaWtfcHl0aG9uJywgJy1waHQnLCAnMS4wJywgJy1waCcsICc3LjQnLCAnLXRuJywgJzgnLCAnLW1hJywgJzUwMCcsICctaW1hZScsICc8aW5maWxlLm1hZT4nLCAnLW9tYWUnLCAnPG91dGZpbGUubWFlPic=

>  <s_epik_input>  (1) 
W09IXVtDSDJdW0NASF0xW0NIMl1DKD1PKU4oW0NIMl1bQ0gyXU8xKVtDSDJdQyg9W0NIXVtDSDJdMilbQ0gyXVtDQEBIXShbT0hdKVtDQEBIXTJDKD1PKVtDSDJdW0NAQF0zKFtDSDNdKVtDSDJdW0NIMl1bQ0gyXVtDQEhdKE8zKVtDSDNd

>  <s_glide_docking_method>  (1) 
confgen

>  <s_i_glide_gridfile>  (1) 
gpcr_drd2_6luq_protein_autoprepared_prepared

>  <s_lp_Force_Field>  (1) 
S-OPLS

>  <s_lp_Variant>  (1) 
DiffSBDD_62-1

>  <s_m_source_file>  (1) 
generated_generic_title2_ligand_DiffSBDD_2026-06-23_prepared.sdf

>  <GenAI_Model>  (1) 
DiffSBDD

>  <Protein>  (1) 
generic_title2

$$$$
DiffSBDD_67
     RDKit          3D

  0  0  0  0  0  0  0  0  0  0999 V3000
M  V30 BEGIN CTAB
M  V30 COUNTS 67 69 0 0 1
M  V30 BEGIN ATOM
M  V30 1 C 9.537143 6.525444 -9.176012 0
M  V30 2 C 7.842942 4.457906 -11.901566 0
M  V30 3 C 10.650008 6.186074 -6.896128 0
M  V30 4 C 7.467478 1.206780 -15.634339 0
M  V30 5 F 11.302453 8.144191 -9.332931 0
M  V30 6 C 8.067896 4.618340 -16.824097 0
M  V30 7 C 7.293502 4.456830 -19.812678 0
M  V30 8 C 5.801159 5.215641 -21.718684 0
M  V30 9 C 7.356188 5.764950 -17.584213 0 CFG=2
M  V30 10 C 5.832841 6.497763 -19.533102 0
M  V30 11 C 9.730408 6.127662 -11.967519 0
M  V30 12 C 8.770080 5.407769 -11.220793 0
M  V30 13 C 4.977712 6.043545 -20.726667 0
M  V30 14 C 7.928317 1.480744 -13.255813 0
M  V30 15 C 10.575405 7.046957 -11.325962 0
M  V30 16 C 6.554133 6.632692 -16.589344 0
M  V30 17 C 10.482147 7.251910 -9.936140 0
M  V30 18 C 7.505069 2.809987 -13.888283 0 CFG=2
M  V30 19 C 7.713188 0.423146 -14.341727 0
M  V30 20 O 6.836690 3.990227 -11.372664 0
M  V30 21 C 8.676911 5.601580 -9.823824 0
M  V30 22 N 7.775408 2.621781 -15.328866 0 CFG=2 CHG=1
M  V30 23 F 11.765336 6.891126 -7.079443 0
M  V30 24 C 9.059008 8.173386 -7.229235 0
M  V30 25 C 7.095784 3.606084 -16.197474 0
M  V30 26 C 9.431081 6.737233 -7.660904 0
M  V30 27 C 6.490281 5.304452 -18.795505 0
M  V30 28 C 8.206094 4.077224 -13.343107 0
M  V30 29 F 10.116057 8.877192 -6.825214 0
M  V30 30 C 6.439125 4.013349 -21.011950 0
M  V30 31 H 10.466339 6.151502 -5.821848 0
M  V30 32 H 10.886856 5.190225 -7.240616 0
M  V30 33 H 8.071944 0.840866 -16.465395 0
M  V30 34 H 6.417677 1.100819 -15.914227 0
M  V30 35 H 8.693614 5.059447 -16.047759 0
M  V30 36 H 8.768410 4.101892 -17.479891 0
M  V30 37 H 8.151370 5.028395 -20.170038 0
M  V30 38 H 7.693643 3.560886 -19.340572 0
M  V30 39 H 5.167984 4.875040 -22.538780 0
M  V30 40 H 6.578119 5.838904 -22.163575 0
M  V30 41 H 8.153871 6.390241 -17.985024 0
M  V30 42 H 5.188761 7.062492 -18.859421 0
M  V30 43 H 6.602937 7.189618 -19.877406 0
M  V30 44 H 9.812724 5.988312 -13.034284 0
M  V30 45 H 4.140788 5.445809 -20.366266 0
M  V30 46 H 4.548798 6.910385 -21.229854 0
M  V30 47 H 8.975489 1.506644 -12.953203 0
M  V30 48 H 7.326156 1.246385 -12.385026 0
M  V30 49 H 11.302986 7.590228 -11.900496 0
M  V30 50 H 5.598258 6.174407 -16.334602 0
M  V30 51 H 7.098436 6.790299 -15.657530 0
M  V30 52 H 6.340204 7.618240 -16.998695 0
M  V30 53 H 6.424168 2.900537 -13.755638 0
M  V30 54 H 8.575406 -0.237361 -14.425652 0
M  V30 55 H 6.852664 -0.206966 -14.109879 0
M  V30 56 H 7.943421 5.052822 -9.249486 0
M  V30 57 H 8.575410 8.738146 -8.024609 0
M  V30 58 H 8.372212 8.150476 -6.384564 0
M  V30 59 H 6.575413 3.083080 -17.001195 0
M  V30 60 H 6.358558 4.135119 -15.587655 0
M  V30 61 H 8.581949 6.124685 -7.353212 0
M  V30 62 H 5.677742 4.684628 -18.416601 0
M  V30 63 H 7.950086 4.938410 -13.958204 0
M  V30 64 H 9.285313 3.940213 -13.412611 0
M  V30 65 H 5.658097 3.331385 -20.672592 0
M  V30 66 H 7.052690 3.452523 -21.718094 0
M  V30 67 H 8.769946 2.727072 -15.463250 0
M  V30 END ATOM
M  V30 BEGIN BOND
M  V30 1 1 9 6
M  V30 2 1 12 2
M  V30 3 1 12 11
M  V30 4 1 13 8
M  V30 5 1 13 10
M  V30 6 2 15 11
M  V30 7 1 16 9
M  V30 8 2 17 1
M  V30 9 1 17 5
M  V30 10 1 17 15
M  V30 11 1 18 14
M  V30 12 1 19 4
M  V30 13 1 19 14
M  V30 14 2 20 2
M  V30 15 1 21 1
M  V30 16 2 21 12
M  V30 17 1 22 4
M  V30 18 1 22 18
M  V30 19 1 23 3
M  V30 20 1 25 6
M  V30 21 1 25 22
M  V30 22 1 26 1
M  V30 23 1 26 3
M  V30 24 1 26 24
M  V30 25 1 27 7
M  V30 26 1 27 9
M  V30 27 1 27 10
M  V30 28 1 28 2
M  V30 29 1 28 18
M  V30 30 1 29 24
M  V30 31 1 30 7
M  V30 32 1 30 8
M  V30 33 1 31 3
M  V30 34 1 32 3
M  V30 35 1 33 4
M  V30 36 1 34 4
M  V30 37 1 35 6
M  V30 38 1 36 6
M  V30 39 1 37 7
M  V30 40 1 38 7
M  V30 41 1 39 8
M  V30 42 1 40 8
M  V30 43 1 9 41 CFG=3
M  V30 44 1 42 10
M  V30 45 1 43 10
M  V30 46 1 44 11
M  V30 47 1 45 13
M  V30 48 1 46 13
M  V30 49 1 47 14
M  V30 50 1 48 14
M  V30 51 1 49 15
M  V30 52 1 50 16
M  V30 53 1 51 16
M  V30 54 1 52 16
M  V30 55 1 18 53 CFG=3
M  V30 56 1 54 19
M  V30 57 1 55 19
M  V30 58 1 56 21
M  V30 59 1 57 24
M  V30 60 1 58 24
M  V30 61 1 59 25
M  V30 62 1 60 25
M  V30 63 1 61 26
M  V30 64 1 62 27
M  V30 65 1 63 28
M  V30 66 1 64 28
M  V30 67 1 65 30
M  V30 68 1 66 30
M  V30 69 1 22 67 CFG=1
M  V30 END BOND
M  V30 END CTAB
M  END
>  <i_epik_Tot_Q>  (1) 
1

>  <i_epik_Tot_abs_Q>  (1) 
1

>  <i_i_glide_confnum>  (1) 
234

>  <i_i_glide_lignum>  (1) 
110

>  <i_i_glide_posenum>  (1) 
273

>  <i_i_glide_rotatable_bonds>  (1) 
10

>  <i_lp_mmshare_version>  (1) 
72125

>  <i_m_source_file_index>  (1) 
68

>  <i_f3d_flags>  (1) 
0

>  <num_sample>  (1) 
100

>  <b_lp_Chiralities_Consistent>  (1) 
1

>  <r_epik_Charging_Adjusted_Penalty>  (1) 
0.0091991127420811905

>  <r_epik_Ionization_Penalty>  (1) 
0.0045995563710408641

>  <r_epik_Ionization_Penalty_Charging>  (1) 
0.0045995563710406013

>  <r_epik_Ionization_Penalty_Neutral>  (1) 
2.6311653613664267e-16

>  <r_epik_State_Penalty>  (1) 
0.0045995563710405883

>  <r_glide_ring_energy>  (1) 
0

>  <r_i_docking_score>  (1) 
-5.0012383030660521

>  <r_i_glide_ecoul>  (1) 
-3.3398064159929506

>  <r_i_glide_eff_state_penalty>  (1) 
0.0045995563710405883

>  <r_i_glide_einternal>  (1) 
10.472694199086472

>  <r_i_glide_emodel>  (1) 
-33.519465871925192

>  <r_i_glide_emodel_strain>  (1) 
0.86662782187107013

>  <r_i_glide_energy>  (1) 
-31.251815906402562

>  <r_i_glide_erotb>  (1) 
0.77002039440311598

>  <r_i_glide_esite>  (1) 
0

>  <r_i_glide_evdw>  (1) 
-27.912009490409613

>  <r_i_glide_gscore>  (1) 
-5.0058378594370927

>  <r_i_glide_gscore_strain>  (1) 
0

>  <r_i_glide_hbond>  (1) 
0

>  <r_i_glide_ligand_efficiency>  (1) 
-0.16670794343553508

>  <r_i_glide_ligand_efficiency_ln>  (1) 
-1.1363358353124542

>  <r_i_glide_ligand_efficiency_sa>  (1) 
-0.5180003408436118

>  <r_i_glide_lipo>  (1) 
-1.8106504778208556

>  <r_i_glide_metal>  (1) 
-0

>  <r_i_glide_rewards>  (1) 
-2.0686363390999301

>  <r_lp_Energy>  (1) 
29.482433999999998

>  <r_lp_tautomer_probability>  (1) 
0.99990000499974985

>  <s_epik_cmdline>  (1) 
J2VwaWtfcHl0aG9uJywgJy1waHQnLCAnMS4wJywgJy1waCcsICc3LjQnLCAnLXRuJywgJzgnLCAnLW1hJywgJzUwMCcsICctaW1hZScsICc8aW5maWxlLm1hZT4nLCAnLW9tYWUnLCAnPG91dGZpbGUubWFlPic=

>  <s_epik_input>  (1) 
RltDSDJdW0NIXShbQ0gyXUYpYzFjKEYpW2NIXVtjSF1jKFtjSF0xKUMoPU8pW0NIMl1bQ0BASF0yW0NIMl1bQ0gyXVtDSDJdTjJbQ0gyXVtDSDJdW0NASF0oW0NIM10pW0NIXTNbQ0gyXVtDSDJdW0NIMl1bQ0gyXVtDSDJdMw==

>  <s_glide_docking_method>  (1) 
confgen

>  <s_i_glide_gridfile>  (1) 
gpcr_drd2_6luq_protein_autoprepared_prepared

>  <s_lp_Force_Field>  (1) 
S-OPLS

>  <s_lp_Variant>  (1) 
DiffSBDD_67-2

>  <s_m_source_file>  (1) 
generated_generic_title2_ligand_DiffSBDD_2026-06-23_prepared.sdf

>  <GenAI_Model>  (1) 
DiffSBDD

>  <Protein>  (1) 
generic_title2

$$$$
DiffSBDD_80
     RDKit          3D

  0  0  0  0  0  0  0  0  0  0999 V3000
M  V30 BEGIN CTAB
M  V30 COUNTS 80 86 0 0 1
M  V30 BEGIN ATOM
M  V30 1 C 6.570356 4.986908 -14.154508 0
M  V30 2 C 4.698066 10.161026 -22.600213 0
M  V30 3 C 7.415478 6.018346 -18.301654 0
M  V30 4 O 3.196721 8.393020 -23.236410 0
M  V30 5 N 9.375402 7.911089 -10.468363 0 CHG=1
M  V30 6 C 9.414142 5.003798 -19.945737 0
M  V30 7 C 8.376119 5.144107 -17.753456 0
M  V30 8 C 4.024727 8.804062 -22.429680 0
M  V30 9 C 8.504852 3.387296 -15.981419 0
M  V30 10 C 8.964584 5.207484 -9.534000 0 CFG=2
M  V30 11 C 9.661770 7.738172 -9.037201 0 CFG=2
M  V30 12 C 5.963682 7.872395 -21.075428 0 CFG=2
M  V30 13 C 7.612963 5.250310 -11.759776 0 CFG=2
M  V30 14 O 7.159009 7.134716 -13.240393 0
M  V30 15 C 6.634429 9.259918 -21.185930 0
M  V30 16 C 4.424392 7.982636 -21.207547 0
M  V30 17 N 6.377668 6.641650 -17.741990 0
M  V30 18 O 5.375330 4.644274 -11.186348 0
M  V30 19 C 9.769107 6.794383 -11.354413 0
M  V30 20 C 9.391276 4.637089 -18.588771 0
M  V30 21 O 9.775445 4.411357 -11.585570 0
M  V30 22 C 6.749984 5.206435 -15.693831 0 CFG=2
M  V30 23 C 6.213388 7.762809 -15.471303 0
M  V30 24 C 8.163954 4.864280 -16.264561 0 CFG=2
M  V30 25 C 8.422589 5.873642 -20.460378 0
M  V30 26 O 10.953906 7.931246 -8.939896 0 CHG=-1
M  V30 27 C 6.364017 7.196757 -19.775853 0
M  V30 28 C 9.006489 5.471167 -11.047025 0 CFG=1
M  V30 29 C 7.438430 6.344691 -19.555862 0
M  V30 30 N 5.614028 7.462599 -18.668783 0
M  V30 31 C 4.516933 6.281476 -16.385365 0
M  V30 32 C 6.224146 10.027099 -22.455713 0
M  V30 33 C 9.221926 6.353532 -8.562694 0 CFG=2
M  V30 34 C 7.534794 5.762075 -13.231107 0 CFG=2
M  V30 35 C 6.038622 6.462762 -16.320815 0 CFG=1
M  V30 36 C 8.445454 6.264797 -21.927919 0
M  V30 37 O 10.175170 5.316204 -8.776965 0
M  V30 38 C 6.359089 5.616565 -10.942197 0
M  V30 39 C 7.375528 7.771343 -14.484664 0
M  V30 40 H 6.689054 3.923957 -13.946837 0
M  V30 41 H 5.543999 5.199430 -13.858955 0
M  V30 42 H 4.431289 10.585910 -23.569655 0
M  V30 43 H 3.975693 6.991047 -21.258636 0
M  V30 44 H 4.305120 10.828589 -21.833502 0
M  V30 45 H 9.819141 8.767889 -10.751383 0
M  V30 46 H 10.187590 4.618891 -20.594521 0
M  V30 47 H 9.474448 3.103091 -16.384697 0
M  V30 48 H 8.541646 3.181898 -14.914457 0
M  V30 49 H 7.768089 2.714085 -16.420535 0
M  V30 50 H 8.328751 4.391268 -9.203200 0
M  V30 51 H 8.975954 8.431924 -8.549015 0
M  V30 52 H 6.225442 7.274476 -21.937553 0
M  V30 53 H 7.540388 4.162190 -11.834285 0
M  V30 54 H 6.369079 9.834218 -20.306410 0
M  V30 55 H 7.719394 9.174720 -21.157376 0
M  V30 56 H 3.996788 8.485766 -20.338627 0
M  V30 57 H 4.778287 4.647517 -10.452846 0
M  V30 58 H 10.843067 6.652709 -11.232653 0
M  V30 59 H 9.646625 7.114507 -12.385825 0
M  V30 60 H 10.145474 3.973364 -18.197785 0
M  V30 61 H 9.999217 4.591757 -12.486792 0
M  V30 62 H 6.175638 4.390430 -16.072473 0
M  V30 63 H 5.323177 7.990436 -14.882933 0
M  V30 64 H 6.314675 8.616106 -16.141982 0
M  V30 65 H 8.930419 5.460663 -15.778366 0
M  V30 66 H 4.175571 5.921931 -15.447483 0
M  V30 67 H 3.988069 7.222588 -16.554769 0
M  V30 68 H 4.199843 5.590408 -17.164357 0
M  V30 69 H 6.624239 9.513601 -23.331565 0
M  V30 70 H 6.681251 11.017572 -22.444816 0
M  V30 71 H 8.755143 6.311792 -7.581359 0
M  V30 72 H 8.538460 5.638416 -13.633159 0
M  V30 73 H 9.362832 5.900012 -22.388750 0
M  V30 74 H 7.630354 5.793353 -22.476405 0
M  V30 75 H 8.447827 7.340478 -22.078793 0
M  V30 76 H 5.972667 6.605992 -11.185373 0
M  V30 77 H 6.530355 5.590222 -9.870996 0
M  V30 78 H 7.698117 8.788810 -14.280626 0
M  V30 79 H 8.175302 7.257373 -14.969225 0
M  V30 80 H 8.360564 8.004382 -10.496066 0
M  V30 END ATOM
M  V30 BEGIN BOND
M  V30 1 2 7 3
M  V30 2 1 8 2
M  V30 3 2 8 4
M  V30 4 1 11 5
M  V30 5 1 15 12
M  V30 6 1 16 8
M  V30 7 1 16 12
M  V30 8 1 17 3
M  V30 9 1 19 5
M  V30 10 2 20 6
M  V30 11 1 20 7
M  V30 12 1 22 1
M  V30 13 1 24 7
M  V30 14 1 24 9
M  V30 15 1 24 22
M  V30 16 1 25 6
M  V30 17 1 26 11
M  V30 18 1 27 12
M  V30 19 1 28 10
M  V30 20 1 28 13
M  V30 21 1 28 19
M  V30 22 1 28 21 CFG=3
M  V30 23 1 29 3
M  V30 24 2 29 25
M  V30 25 1 29 27
M  V30 26 1 30 17
M  V30 27 2 30 27
M  V30 28 1 32 2
M  V30 29 1 32 15
M  V30 30 1 33 10
M  V30 31 1 33 11
M  V30 32 1 34 1
M  V30 33 1 34 13
M  V30 34 1 34 14
M  V30 35 1 35 17
M  V30 36 1 35 22
M  V30 37 1 35 23
M  V30 38 1 35 31 CFG=3
M  V30 39 1 36 25
M  V30 40 1 37 10
M  V30 41 1 37 33
M  V30 42 1 38 13
M  V30 43 1 38 18
M  V30 44 1 39 14
M  V30 45 1 39 23
M  V30 46 1 40 1
M  V30 47 1 41 1
M  V30 48 1 42 2
M  V30 49 1 43 16
M  V30 50 1 44 2
M  V30 51 1 45 5
M  V30 52 1 46 6
M  V30 53 1 47 9
M  V30 54 1 48 9
M  V30 55 1 49 9
M  V30 56 1 10 50 CFG=1
M  V30 57 1 11 51 CFG=1
M  V30 58 1 12 52 CFG=3
M  V30 59 1 13 53 CFG=3
M  V30 60 1 54 15
M  V30 61 1 55 15
M  V30 62 1 56 16
M  V30 63 1 57 18
M  V30 64 1 58 19
M  V30 65 1 59 19
M  V30 66 1 60 20
M  V30 67 1 61 21
M  V30 68 1 22 62 CFG=3
M  V30 69 1 63 23
M  V30 70 1 64 23
M  V30 71 1 24 65 CFG=1
M  V30 72 1 66 31
M  V30 73 1 67 31
M  V30 74 1 68 31
M  V30 75 1 69 32
M  V30 76 1 70 32
M  V30 77 1 33 71 CFG=1
M  V30 78 1 34 72 CFG=3
M  V30 79 1 73 36
M  V30 80 1 74 36
M  V30 81 1 75 36
M  V30 82 1 76 38
M  V30 83 1 77 38
M  V30 84 1 78 39
M  V30 85 1 79 39
M  V30 86 1 80 5
M  V30 END BOND
M  V30 END CTAB
M  END
>  <i_epik_Tot_Q>  (1) 
0

>  <i_epik_Tot_abs_Q>  (1) 
2

>  <i_i_glide_confnum>  (1) 
11

>  <i_i_glide_lignum>  (1) 
139

>  <i_i_glide_posenum>  (1) 
371

>  <i_i_glide_rotatable_bonds>  (1) 
6

>  <i_lp_mmshare_version>  (1) 
72125

>  <i_m_source_file_index>  (1) 
81

>  <i_f3d_flags>  (1) 
0

>  <num_sample>  (1) 
100

>  <b_lp_Chiralities_Consistent>  (1) 
1

>  <r_epik_Charging_Adjusted_Penalty>  (1) 
0.19389291401224384

>  <r_epik_Ionization_Penalty>  (1) 
0.092004943806736766

>  <r_epik_Ionization_Penalty_Charging>  (1) 
0.091964506543683239

>  <r_epik_Ionization_Penalty_Neutral>  (1) 
4.0437263053531681e-05

>  <r_epik_State_Penalty>  (1) 
0.10192840746856062

>  <r_glide_ring_energy>  (1) 
0.9976426745590834

>  <r_i_docking_score>  (1) 
-4.9980734210404894

>  <r_i_glide_ecoul>  (1) 
-7.0527167648078617

>  <r_i_glide_eff_state_penalty>  (1) 
0.10192840746856062

>  <r_i_glide_einternal>  (1) 
1.2086301421584249

>  <r_i_glide_emodel>  (1) 
-31.572932379057178

>  <r_i_glide_emodel_strain>  (1) 
1.2675502348679402

>  <r_i_glide_energy>  (1) 
-25.034322520866567

>  <r_i_glide_erotb>  (1) 
0.28387705293314092

>  <r_i_glide_esite>  (1) 
-0.20000000000000001

>  <r_i_glide_evdw>  (1) 
-17.981605756058705

>  <r_i_glide_gscore>  (1) 
-5.1000018285090496

>  <r_i_glide_gscore_strain>  (1) 
0

>  <r_i_glide_hbond>  (1) 
-0.16199910859111688

>  <r_i_glide_ligand_efficiency>  (1) 
-0.12815572874462794

>  <r_i_glide_ligand_efficiency_ln>  (1) 
-1.0717288202222992

>  <r_i_glide_ligand_efficiency_sa>  (1) 
-0.43460317380660185

>  <r_i_glide_lipo>  (1) 
-2.1013290694568694

>  <r_i_glide_metal>  (1) 
-0

>  <r_i_glide_rewards>  (1) 
-0.96356290087008944

>  <r_lp_Energy>  (1) 
36.052596000000001

>  <r_lp_tautomer_probability>  (1) 
0.99999997999999979

>  <s_epik_Chemistry_Notes>  (1) 
This compound contains an acetal/aminal-like group ( X-CH(R)-Y where X, Y are N, S, or O) that may be acid/base labile, releasing an aldehyde.

>  <s_epik_cmdline>  (1) 
J2VwaWtfcHl0aG9uJywgJy1waHQnLCAnMS4wJywgJy1waCcsICc3LjQnLCAnLXRuJywgJzgnLCAnLW1hJywgJzUwMCcsICctaW1hZScsICc8aW5maWxlLm1hZT4nLCAnLW9tYWUnLCAnPG91dGZpbGUubWFlPic=

>  <s_epik_input>  (1) 
W0NASF0xMltDQEBIXShPMilbQ0BASF0oW09IXSlbTkhdW0NIMl1bQ0BdMShbT0hdKVtDQEBIXShbQ0gyXVtPSF0pW0NASF0oT1tDSDJdW0NIMl0zKVtDSDJdW0NAQEhdNFtDQEBIXShbQ0gzXSljKGM1bjZbQ0BdMzRbQ0gzXSlbY0hdW2NIXWMoW0NIM10pYzVjKG42KVtDQEhdKFtDSDJdW0NIMl1bQ0gyXTcpW0NIXT1DN1tPSF0=

>  <s_glide_docking_method>  (1) 
confgen

>  <s_i_glide_gridfile>  (1) 
gpcr_drd2_6luq_protein_autoprepared_prepared

>  <s_lp_Force_Field>  (1) 
S-OPLS

>  <s_lp_Variant>  (1) 
DiffSBDD_80-1

>  <s_m_source_file>  (1) 
generated_generic_title2_ligand_DiffSBDD_2026-06-23_prepared.sdf

>  <GenAI_Model>  (1) 
DiffSBDD

>  <Protein>  (1) 
generic_title2

$$$$
DiffSBDD_92
     RDKit          3D

  0  0  0  0  0  0  0  0  0  0999 V3000
M  V30 BEGIN CTAB
M  V30 COUNTS 50 51 0 0 1
M  V30 BEGIN ATOM
M  V30 1 O 9.294434 7.383305 -12.001083 0
M  V30 2 N 9.775420 6.706105 -9.896112 0
M  V30 3 C 9.502621 6.478763 -11.192553 0
M  V30 4 C 11.587899 6.942625 -4.009590 0
M  V30 5 Cl 6.493223 5.990353 -15.525580 0
M  V30 6 O 7.117358 4.717873 -11.353886 0
M  V30 7 C 11.571017 9.537497 -3.798185 0
M  V30 8 C 5.554956 5.115951 -13.128780 0
M  V30 9 C 6.718150 4.935461 -14.107732 0 CFG=2
M  V30 10 C 12.425548 9.401903 -2.541080 0
M  V30 11 C 12.232441 8.063567 -1.827731 0
M  V30 12 C 9.468921 5.012010 -11.641836 0
M  V30 13 C 9.399255 8.029873 -7.835559 0
M  V30 14 C 8.145397 4.557202 -12.285145 0 CFG=2
M  V30 15 O 7.929020 5.287287 -13.456610 0
M  V30 16 C 9.817942 8.052000 -9.326286 0 CFG=1
M  V30 17 N 10.580511 8.461850 -5.743056 0
M  V30 18 C 5.849338 4.318391 -11.853987 0
M  V30 19 C 10.520176 7.701051 -6.846448 0
M  V30 20 C 11.620970 8.319048 -4.728462 0
M  V30 21 O 11.314887 6.790367 -7.082025 0
M  V30 22 C 12.511247 6.904843 -2.785010 0
M  V30 23 C 11.188181 8.708212 -9.606065 0
M  V30 24 H 9.937184 5.924557 -9.278187 0
M  V30 25 H 10.575512 6.666842 -3.723228 0
M  V30 26 H 11.898422 6.154069 -4.694509 0
M  V30 27 H 11.896796 10.390223 -4.385019 0
M  V30 28 H 10.575411 9.786224 -3.482779 0
M  V30 29 H 4.620626 4.788628 -13.585021 0
M  V30 30 H 5.441003 6.171826 -12.878145 0
M  V30 31 H 6.769722 3.907850 -14.471210 0
M  V30 32 H 13.470831 9.517903 -2.814277 0
M  V30 33 H 12.175411 10.213020 -1.857436 0
M  V30 34 H 12.920648 8.012242 -0.983340 0
M  V30 35 H 11.221306 7.990207 -1.426641 0
M  V30 36 H 10.263920 4.857211 -12.370610 0
M  V30 37 H 9.678173 4.353775 -10.797708 0
M  V30 38 H 8.581047 7.324732 -7.677008 0
M  V30 39 H 8.988942 9.008699 -7.583787 0
M  V30 40 H 8.218054 3.498755 -12.544502 0
M  V30 41 H 9.062987 8.659769 -9.830230 0
M  V30 42 H 9.893484 9.188056 -5.613102 0
M  V30 43 H 5.849554 3.246208 -12.055022 0
M  V30 44 H 5.090207 4.508238 -11.095556 0
M  V30 45 H 12.575406 8.454544 -5.208506 0
M  V30 46 H 13.544828 6.979569 -3.117203 0
M  V30 47 H 12.410411 5.950263 -2.267380 0
M  V30 48 H 11.253798 9.709581 -9.185029 0
M  V30 49 H 12.017856 8.124661 -9.207471 0
M  V30 50 H 11.356858 8.790188 -10.676639 0
M  V30 END ATOM
M  V30 BEGIN BOND
M  V30 1 2 3 1
M  V30 2 1 3 2
M  V30 3 1 9 5
M  V30 4 1 9 8
M  V30 5 1 10 7
M  V30 6 1 11 10
M  V30 7 1 12 3
M  V30 8 1 14 6
M  V30 9 1 14 12
M  V30 10 1 15 9
M  V30 11 1 15 14
M  V30 12 1 16 2
M  V30 13 1 16 13
M  V30 14 1 18 6
M  V30 15 1 18 8
M  V30 16 1 19 13
M  V30 17 1 19 17
M  V30 18 1 20 4
M  V30 19 1 20 7
M  V30 20 1 20 17
M  V30 21 2 21 19
M  V30 22 1 22 4
M  V30 23 1 22 11
M  V30 24 1 23 16
M  V30 25 1 24 2
M  V30 26 1 25 4
M  V30 27 1 26 4
M  V30 28 1 27 7
M  V30 29 1 28 7
M  V30 30 1 29 8
M  V30 31 1 30 8
M  V30 32 1 9 31 CFG=3
M  V30 33 1 32 10
M  V30 34 1 33 10
M  V30 35 1 34 11
M  V30 36 1 35 11
M  V30 37 1 36 12
M  V30 38 1 37 12
M  V30 39 1 38 13
M  V30 40 1 39 13
M  V30 41 1 14 40 CFG=3
M  V30 42 1 16 41 CFG=3
M  V30 43 1 42 17
M  V30 44 1 43 18
M  V30 45 1 44 18
M  V30 46 1 45 20
M  V30 47 1 46 22
M  V30 48 1 47 22
M  V30 49 1 48 23
M  V30 50 1 49 23
M  V30 51 1 50 23
M  V30 END BOND
M  V30 END CTAB
M  END
>  <i_epik_Tot_Q>  (1) 
0

>  <i_epik_Tot_abs_Q>  (1) 
0

>  <i_i_glide_confnum>  (1) 
8

>  <i_i_glide_lignum>  (1) 
175

>  <i_i_glide_posenum>  (1) 
328

>  <i_i_glide_rotatable_bonds>  (1) 
8

>  <i_lp_mmshare_version>  (1) 
72125

>  <i_m_source_file_index>  (1) 
93

>  <i_f3d_flags>  (1) 
0

>  <num_sample>  (1) 
100

>  <b_lp_Chiralities_Consistent>  (1) 
1

>  <r_epik_Charging_Adjusted_Penalty>  (1) 
0

>  <r_epik_Ionization_Penalty>  (1) 
1.562769370877429e-07

>  <r_epik_Ionization_Penalty_Charging>  (1) 
0

>  <r_epik_Ionization_Penalty_Neutral>  (1) 
1.562769370877429e-07

>  <r_epik_State_Penalty>  (1) 
-0

>  <r_glide_ring_energy>  (1) 
0

>  <r_i_docking_score>  (1) 
-4.9926840722175321

>  <r_i_glide_ecoul>  (1) 
0.87507035653140797

>  <r_i_glide_eff_state_penalty>  (1) 
-0

>  <r_i_glide_einternal>  (1) 
6.3480060708102695

>  <r_i_glide_emodel>  (1) 
-40.640977958158629

>  <r_i_glide_emodel_strain>  (1) 
0.61170220301768463

>  <r_i_glide_energy>  (1) 
-33.713041406357426

>  <r_i_glide_erotb>  (1) 
0.94841189780278856

>  <r_i_glide_esite>  (1) 
-0.13142477145918038

>  <r_i_glide_evdw>  (1) 
-34.588111762888836

>  <r_i_glide_gscore>  (1) 
-4.9926840722175321

>  <r_i_glide_gscore_strain>  (1) 
0

>  <r_i_glide_hbond>  (1) 
0

>  <r_i_glide_ligand_efficiency>  (1) 
-0.21707322053119704

>  <r_i_glide_ligand_efficiency_ln>  (1) 
-1.2072762798184187

>  <r_i_glide_ligand_efficiency_sa>  (1) 
-0.61732736407870825

>  <r_i_glide_lipo>  (1) 
-2.4617239936991351

>  <r_i_glide_metal>  (1) 
-0

>  <r_i_glide_rewards>  (1) 
-1.7498021701972741

>  <r_lp_Energy>  (1) 
5.1782649999999997

>  <r_lp_tautomer_probability>  (1) 
1

>  <s_epik_Chemistry_Notes>  (1) 
This compound contains an acetal/aminal-like group ( X-CH(R)-Y where X, Y are N, S, or O) that may be acid/base labile, releasing an aldehyde.

>  <s_epik_cmdline>  (1) 
J2VwaWtfcHl0aG9uJywgJy1waHQnLCAnMS4wJywgJy1waCcsICc3LjQnLCAnLXRuJywgJzgnLCAnLW1hJywgJzUwMCcsICctaW1hZScsICc8aW5maWxlLm1hZT4nLCAnLW9tYWUnLCAnPG91dGZpbGUubWFlPic=

>  <s_epik_input>  (1) 
Q2xbQ0BASF0xW0NIMl1bQ0gyXU9bQ0BASF0oTzEpW0NIMl1DKD1PKVtOSF1bQ0BIXShbQ0gzXSlbQ0gyXUMoPU8pW05IXVtDSF0yW0NIMl1bQ0gyXVtDSDJdW0NIMl1bQ0gyXTI=

>  <s_glide_docking_method>  (1) 
confgen

>  <s_i_glide_gridfile>  (1) 
gpcr_drd2_6luq_protein_autoprepared_prepared

>  <s_lp_Force_Field>  (1) 
S-OPLS

>  <s_lp_Variant>  (1) 
DiffSBDD_92-1

>  <s_m_source_file>  (1) 
generated_generic_title2_ligand_DiffSBDD_2026-06-23_prepared.sdf

>  <GenAI_Model>  (1) 
DiffSBDD

>  <Protein>  (1) 
generic_title2

$$$$
DiffSBDD_39
     RDKit          3D

  0  0  0  0  0  0  0  0  0  0999 V3000
M  V30 BEGIN CTAB
M  V30 COUNTS 48 49 0 0 1
M  V30 BEGIN ATOM
M  V30 1 C 11.025271 7.899366 -6.172202 0
M  V30 2 C 11.895041 9.195862 -3.425819 0
M  V30 3 O 5.058267 0.790237 -13.585055 0
M  V30 4 C 6.354470 0.571918 -13.095505 0
M  V30 5 C 7.415672 0.593208 -14.163729 0
M  V30 6 C 9.180484 5.205646 -9.421889 0
M  V30 7 C 11.489904 9.794336 -4.582179 0
M  V30 8 C 12.175238 7.783750 -3.185026 0
M  V30 9 C 9.282834 7.225821 -7.864229 0
M  V30 10 C 10.921901 6.814876 -5.148154 0
M  V30 11 C 11.775485 6.752060 -3.933896 0
M  V30 12 C 6.834438 4.050428 -12.218242 0
M  V30 13 C 11.246361 9.191415 -5.892754 0
M  V30 14 C 7.386104 1.686784 -13.103865 0 CFG=1
M  V30 15 C 10.779626 7.451668 -7.603968 0
M  V30 16 C 8.911349 5.748331 -8.011178 0
M  V30 17 N 7.953882 5.180193 -10.250331 0 CHG=1
M  V30 18 O 6.484154 -0.409175 -12.101804 0
M  V30 19 C 7.050976 3.138051 -13.449929 0
M  V30 20 C 8.153412 4.498306 -11.554193 0
M  V30 21 H 12.061406 9.857831 -2.586969 0
M  V30 22 H 4.776512 0.005186 -14.031317 0
M  V30 23 H 8.210530 -0.148818 -14.101827 0
M  V30 24 H 7.120588 0.869046 -15.174743 0
M  V30 25 H 9.579380 4.195003 -9.337311 0
M  V30 26 H 9.948598 5.793499 -9.925038 0
M  V30 27 H 11.374249 10.862743 -4.539759 0
M  V30 28 H 12.747675 7.547192 -2.300530 0
M  V30 29 H 8.975410 7.772653 -8.755200 0
M  V30 30 H 8.697519 7.657813 -7.051037 0
M  V30 31 H 9.879531 6.696563 -4.856192 0
M  V30 32 H 11.171435 5.893341 -5.670232 0
M  V30 33 H 12.050415 5.756707 -3.616934 0
M  V30 34 H 6.284218 4.939329 -12.528083 0
M  V30 35 H 6.191289 3.538507 -11.501553 0
M  V30 36 H 11.234249 9.871097 -6.731626 0
M  V30 37 H 8.195650 1.601475 -12.385175 0
M  V30 38 H 11.372382 6.567659 -7.843174 0
M  V30 39 H 11.138901 8.223458 -8.285134 0
M  V30 40 H 7.866701 5.590213 -7.739497 0
M  V30 41 H 9.488839 5.189715 -7.278330 0
M  V30 42 H 7.616289 6.132480 -10.366701 0
M  V30 43 H 6.132838 -1.223668 -12.446456 0
M  V30 44 H 7.848834 3.544247 -14.073170 0
M  V30 45 H 6.159157 3.150815 -14.073301 0
M  V30 46 H 8.780835 3.619784 -11.400081 0
M  V30 47 H 8.709717 5.158375 -12.222228 0
M  V30 48 H 7.249632 4.672989 -9.732842 0
M  V30 END ATOM
M  V30 BEGIN BOND
M  V30 1 1 4 3
M  V30 2 1 5 4
M  V30 3 2 7 2
M  V30 4 1 8 2
M  V30 5 1 10 1
M  V30 6 2 11 8
M  V30 7 1 11 10
M  V30 8 2 13 1
M  V30 9 1 13 7
M  V30 10 1 14 4
M  V30 11 1 14 5
M  V30 12 1 15 1
M  V30 13 1 15 9
M  V30 14 1 16 6
M  V30 15 1 16 9
M  V30 16 1 17 6
M  V30 17 1 18 4
M  V30 18 1 19 12
M  V30 19 1 19 14
M  V30 20 1 20 12
M  V30 21 1 20 17
M  V30 22 1 21 2
M  V30 23 1 22 3
M  V30 24 1 23 5
M  V30 25 1 24 5
M  V30 26 1 25 6
M  V30 27 1 26 6
M  V30 28 1 27 7
M  V30 29 1 28 8
M  V30 30 1 29 9
M  V30 31 1 30 9
M  V30 32 1 31 10
M  V30 33 1 32 10
M  V30 34 1 33 11
M  V30 35 1 34 12
M  V30 36 1 35 12
M  V30 37 1 36 13
M  V30 38 1 14 37 CFG=1
M  V30 39 1 38 15
M  V30 40 1 39 15
M  V30 41 1 40 16
M  V30 42 1 41 16
M  V30 43 1 42 17
M  V30 44 1 43 18
M  V30 45 1 44 19
M  V30 46 1 45 19
M  V30 47 1 46 20
M  V30 48 1 47 20
M  V30 49 1 48 17
M  V30 END BOND
M  V30 END CTAB
M  END
>  <i_epik_Tot_Q>  (1) 
1

>  <i_epik_Tot_abs_Q>  (1) 
1

>  <i_i_glide_confnum>  (1) 
81

>  <i_i_glide_lignum>  (1) 
65

>  <i_i_glide_posenum>  (1) 
337

>  <i_i_glide_rotatable_bonds>  (1) 
11

>  <i_lp_mmshare_version>  (1) 
72125

>  <i_m_source_file_index>  (1) 
40

>  <i_f3d_flags>  (1) 
0

>  <num_sample>  (1) 
100

>  <b_lp_Chiralities_Consistent>  (1) 
1

>  <r_epik_Charging_Adjusted_Penalty>  (1) 
0.00040157978397640045

>  <r_epik_Ionization_Penalty>  (1) 
0.00040175900368966919

>  <r_epik_Ionization_Penalty_Charging>  (1) 
0.00040157978397640045

>  <r_epik_Ionization_Penalty_Neutral>  (1) 
1.7921971326873193e-07

>  <r_epik_State_Penalty>  (1) 
-0

>  <r_glide_ring_energy>  (1) 
0

>  <r_i_docking_score>  (1) 
-4.9919214487487054

>  <r_i_glide_ecoul>  (1) 
-7.6053601774227877

>  <r_i_glide_eff_state_penalty>  (1) 
-0

>  <r_i_glide_einternal>  (1) 
9.8372693241387239

>  <r_i_glide_emodel>  (1) 
-50.987713773409652

>  <r_i_glide_emodel_strain>  (1) 
0.91828707049988623

>  <r_i_glide_energy>  (1) 
-39.558252470782612

>  <r_i_glide_erotb>  (1) 
3.7206293097687571

>  <r_i_glide_esite>  (1) 
-0.084556981463411868

>  <r_i_glide_evdw>  (1) 
-31.952892293359827

>  <r_i_glide_gscore>  (1) 
-4.9919214487487054

>  <r_i_glide_gscore_strain>  (1) 
0

>  <r_i_glide_hbond>  (1) 
-0.32152751122845424

>  <r_i_glide_ligand_efficiency>  (1) 
-0.24959607243743526

>  <r_i_glide_ligand_efficiency_ln>  (1) 
-1.2493132940332505

>  <r_i_glide_ligand_efficiency_sa>  (1) 
-0.67750797605707269

>  <r_i_glide_lipo>  (1) 
-2.9835298839597679

>  <r_i_glide_metal>  (1) 
-0

>  <r_i_glide_rewards>  (1) 
-2.584487740584418

>  <r_lp_Energy>  (1) 
15.408104999999999

>  <r_lp_tautomer_probability>  (1) 
1

>  <s_epik_cmdline>  (1) 
J2VwaWtfcHl0aG9uJywgJy1waHQnLCAnMS4wJywgJy1waCcsICc3LjQnLCAnLXRuJywgJzgnLCAnLW1hJywgJzUwMCcsICctaW1hZScsICc8aW5maWxlLm1hZT4nLCAnLW9tYWUnLCAnPG91dGZpbGUubWFlPic=

>  <s_epik_input>  (1) 
W0NIMl0xW0NIXT1bQ0hdW0NIXT1bQ0hdW0NIXT1DMVtDSDJdW0NIMl1bQ0gyXVtDSDJdW05IXVtDSDJdW0NIMl1bQ0gyXVtDQEBIXTJbQ0gyXUMyKFtPSF0pW09IXQ==

>  <s_glide_docking_method>  (1) 
confgen

>  <s_i_glide_gridfile>  (1) 
gpcr_drd2_6luq_protein_autoprepared_prepared

>  <s_lp_Force_Field>  (1) 
S-OPLS

>  <s_lp_Variant>  (1) 
DiffSBDD_39-1

>  <s_m_source_file>  (1) 
generated_generic_title2_ligand_DiffSBDD_2026-06-23_prepared.sdf

>  <GenAI_Model>  (1) 
DiffSBDD

>  <Protein>  (1) 
generic_title2

$$$$
DiffSBDD_11
     RDKit          3D

  0  0  0  0  0  0  0  0  0  0999 V3000
M  V30 BEGIN CTAB
M  V30 COUNTS 43 43 0 0 1
M  V30 BEGIN ATOM
M  V30 1 C 7.949011 6.400279 -12.412249 0 CFG=1
M  V30 2 C 10.909307 7.226596 -5.344199 0
M  V30 3 C 8.503972 5.122859 -11.748639 0
M  V30 4 C 9.725279 6.422036 -9.011747 0
M  V30 5 C 13.084060 9.189934 -4.012267 0
M  V30 6 C 10.695386 6.769589 -7.864535 0 CFG=1
M  V30 7 C 11.631178 8.926290 -6.979072 0
M  V30 8 C 9.068791 5.029073 -8.941163 0
M  V30 9 C 11.359128 8.146469 -8.036072 0
M  V30 10 C 6.465494 6.272121 -12.794452 0
M  V30 11 N 8.175813 7.605206 -11.584935 0 CHG=1
M  V30 12 N 11.374936 8.569910 -5.671534 0
M  V30 13 C 11.683668 9.448950 -4.554958 0
M  V30 14 C 11.684211 8.575633 -9.457060 0
M  V30 15 C 10.003997 6.703244 -6.475038 0
M  V30 16 S 7.725941 4.790239 -10.145412 0
M  V30 17 H 8.508194 6.544850 -13.337285 0
M  V30 18 H 10.401034 7.188424 -4.385099 0
M  V30 19 H 11.776092 6.573540 -5.250879 0
M  V30 20 H 9.587327 5.162888 -11.641661 0
M  V30 21 H 8.311395 4.262897 -12.391771 0
M  V30 22 H 8.975411 7.201659 -9.029905 0
M  V30 23 H 10.253045 6.478720 -9.960566 0
M  V30 24 H 13.302122 9.859343 -3.185492 0
M  V30 25 H 13.191656 8.166801 -3.648964 0
M  V30 26 H 13.835319 9.364850 -4.783149 0
M  V30 27 H 11.480467 6.023624 -7.863229 0
M  V30 28 H 12.086859 9.898663 -7.085350 0
M  V30 29 H 9.814655 4.248434 -9.082572 0
M  V30 30 H 8.614806 4.862257 -7.966229 0
M  V30 31 H 6.303931 5.404736 -13.434847 0
M  V30 32 H 5.828174 6.156534 -11.916436 0
M  V30 33 H 6.118482 7.147273 -13.344199 0
M  V30 34 H 7.636651 7.589679 -10.695197 0
M  V30 35 H 9.153098 7.683339 -11.354147 0
M  V30 36 H 11.587264 10.487470 -4.874548 0
M  V30 37 H 10.975079 9.310576 -3.745035 0
M  V30 38 H 12.285139 7.816653 -9.959048 0
M  V30 39 H 10.772675 8.749226 -10.027624 0
M  V30 40 H 12.249736 9.507015 -9.465042 0
M  V30 41 H 9.083223 7.290297 -6.493998 0
M  V30 42 H 9.712543 5.683226 -6.247568 0
M  V30 43 H 7.884460 8.422121 -12.098807 0
M  V30 END ATOM
M  V30 BEGIN BOND
M  V30 1 1 3 1
M  V30 2 1 6 4
M  V30 3 1 8 4
M  V30 4 1 9 6
M  V30 5 2 9 7
M  V30 6 1 10 1
M  V30 7 1 11 1
M  V30 8 1 12 2
M  V30 9 1 12 7
M  V30 10 1 13 5
M  V30 11 1 13 12
M  V30 12 1 14 9
M  V30 13 1 15 2
M  V30 14 1 15 6
M  V30 15 1 16 3
M  V30 16 1 16 8
M  V30 17 1 1 17 CFG=3
M  V30 18 1 18 2
M  V30 19 1 19 2
M  V30 20 1 20 3
M  V30 21 1 21 3
M  V30 22 1 22 4
M  V30 23 1 23 4
M  V30 24 1 24 5
M  V30 25 1 25 5
M  V30 26 1 26 5
M  V30 27 1 6 27 CFG=1
M  V30 28 1 28 7
M  V30 29 1 29 8
M  V30 30 1 30 8
M  V30 31 1 31 10
M  V30 32 1 32 10
M  V30 33 1 33 10
M  V30 34 1 34 11
M  V30 35 1 35 11
M  V30 36 1 36 13
M  V30 37 1 37 13
M  V30 38 1 38 14
M  V30 39 1 39 14
M  V30 40 1 40 14
M  V30 41 1 41 15
M  V30 42 1 42 15
M  V30 43 1 43 11
M  V30 END BOND
M  V30 END CTAB
M  END
>  <i_epik_Tot_Q>  (1) 
1

>  <i_epik_Tot_abs_Q>  (1) 
1

>  <i_i_glide_confnum>  (1) 
44

>  <i_i_glide_lignum>  (1) 
23

>  <i_i_glide_posenum>  (1) 
221

>  <i_i_glide_rotatable_bonds>  (1) 
6

>  <i_lp_mmshare_version>  (1) 
72125

>  <i_m_source_file_index>  (1) 
12

>  <i_f3d_flags>  (1) 
0

>  <num_sample>  (1) 
100

>  <b_lp_Chiralities_Consistent>  (1) 
1

>  <r_epik_Charging_Adjusted_Penalty>  (1) 
1.9642440234168317

>  <r_epik_Ionization_Penalty>  (1) 
0.98935146828666498

>  <r_epik_Ionization_Penalty_Charging>  (1) 
0.98585147642448279

>  <r_epik_Ionization_Penalty_Neutral>  (1) 
0.0034999918621821963

>  <r_epik_State_Penalty>  (1) 
0.9783925469923489

>  <r_glide_ring_energy>  (1) 
0

>  <r_i_docking_score>  (1) 
-4.9894208269378106

>  <r_i_glide_ecoul>  (1) 
-7.1561178736793876

>  <r_i_glide_eff_state_penalty>  (1) 
0.9783925469923489

>  <r_i_glide_einternal>  (1) 
1.9051103642022627

>  <r_i_glide_emodel>  (1) 
-45.066571382445574

>  <r_i_glide_emodel_strain>  (1) 
0.065123946714923164

>  <r_i_glide_energy>  (1) 
-30.895347405782104

>  <r_i_glide_erotb>  (1) 
1.1721704271113136

>  <r_i_glide_esite>  (1) 
-0.10000000000000001

>  <r_i_glide_evdw>  (1) 
-23.739229532102716

>  <r_i_glide_gscore>  (1) 
-5.9678133739301593

>  <r_i_glide_gscore_strain>  (1) 
0

>  <r_i_glide_hbond>  (1) 
-0.17220940600792728

>  <r_i_glide_ligand_efficiency>  (1) 
-0.31183880168361316

>  <r_i_glide_ligand_efficiency_ln>  (1) 
-1.3225456561232569

>  <r_i_glide_ligand_efficiency_sa>  (1) 
-0.78578454083035409

>  <r_i_glide_lipo>  (1) 
-1.875261037253853

>  <r_i_glide_metal>  (1) 
-0

>  <r_i_glide_rewards>  (1) 
-2.7321342001226485

>  <r_lp_Energy>  (1) 
12.336442

>  <s_epik_Chemistry_Notes>  (1) 
This compound has an imine and may undergo hydrolysis.

>  <s_epik_cmdline>  (1) 
J2VwaWtfcHl0aG9uJywgJy1waHQnLCAnMS4wJywgJy1waCcsICc3LjQnLCAnLXRuJywgJzgnLCAnLW1hJywgJzUwMCcsICctaW1hZScsICc8aW5maWxlLm1hZT4nLCAnLW9tYWUnLCAnPG91dGZpbGUubWFlPic=

>  <s_epik_input>  (1) 
W0NIM11bQ0BASF0oW05IMl0pW0NIMl1TW0NIMl1bQ0gyXVtDQEhdMUMoW0NIM10pPVtDSF1OKFtDSDJdW0NIMl0xKVtDSDJdW0NIM10=

>  <s_glide_docking_method>  (1) 
confgen

>  <s_i_glide_gridfile>  (1) 
gpcr_drd2_6luq_protein_autoprepared_prepared

>  <s_lp_Force_Field>  (1) 
S-OPLS

>  <s_lp_Variant>  (1) 
DiffSBDD_11-3

>  <s_m_source_file>  (1) 
generated_generic_title2_ligand_DiffSBDD_2026-06-23_prepared.sdf

>  <GenAI_Model>  (1) 
DiffSBDD

>  <Protein>  (1) 
generic_title2

$$$$
DiffSBDD_76
     RDKit          3D

  0  0  0  0  0  0  0  0  0  0999 V3000
M  V30 BEGIN CTAB
M  V30 COUNTS 53 56 0 0 1
M  V30 BEGIN ATOM
M  V30 1 N 7.287719 5.590225 -11.293047 0
M  V30 2 N 11.387371 8.041897 -4.785025 0
M  V30 3 C 6.839143 5.036764 -13.729655 0 CFG=2
M  V30 4 C 10.817952 8.813979 -5.890695 0
M  V30 5 F 8.546187 4.785502 -8.193012 0
M  V30 6 C 12.305327 8.366864 -3.901970 0
M  V30 7 C 6.603716 5.643431 -15.129807 0
M  V30 8 C 7.160890 6.117468 -12.647721 0
M  V30 9 C 10.840603 7.964111 -9.611504 0
M  V30 10 C 8.648928 5.159370 -11.006618 0
M  V30 11 C 6.175407 6.790236 -17.681724 0
M  V30 12 N 10.975409 6.790225 -4.530641 0
M  V30 13 C 6.793435 5.533648 -17.578987 0
M  V30 14 C 5.769317 7.475753 -16.523505 0
M  V30 15 C 7.637416 3.589158 -16.241627 0
M  V30 16 N 12.910080 9.590227 -3.985031 0
M  V30 17 C 7.663861 2.927953 -14.873456 0
M  V30 18 C 5.981384 6.910014 -15.253443 0
M  V30 19 C 10.761500 7.712039 -8.226115 0
M  V30 20 C 7.913265 3.934120 -13.768495 0
M  V30 21 O 8.096239 2.998585 -17.218791 0
M  V30 22 C 9.981848 6.633915 -7.753015 0
M  V30 23 N 12.575378 7.462995 -2.995318 0
M  V30 24 C 11.516107 8.601139 -7.250443 0
M  V30 25 C 10.147638 7.138757 -10.517276 0
M  V30 26 C 9.291487 5.813693 -8.655066 0
M  V30 27 C 9.375410 6.058571 -10.037952 0
M  V30 28 C 11.681426 6.499168 -3.415516 0
M  V30 29 C 7.005049 4.945134 -16.312389 0
M  V30 30 H 7.069838 6.334691 -10.626645 0
M  V30 31 H 5.894955 4.566761 -13.450242 0
M  V30 32 H 9.744580 8.630342 -5.954838 0
M  V30 33 H 10.892288 9.869125 -5.626935 0
M  V30 34 H 6.330617 6.816268 -12.571875 0
M  V30 35 H 8.036753 6.709590 -12.918508 0
M  V30 36 H 11.434575 8.788192 -9.979143 0
M  V30 37 H 9.264232 5.081942 -11.900488 0
M  V30 38 H 8.606216 4.155455 -10.584197 0
M  V30 39 H 6.011181 7.231227 -18.653884 0
M  V30 40 H 7.097196 5.011554 -18.475420 0
M  V30 41 H 5.294304 8.441602 -16.609378 0
M  V30 42 H 13.610732 9.875284 -3.315324 0
M  V30 43 H 12.667917 10.250780 -4.707175 0
M  V30 44 H 6.708144 2.428223 -14.713664 0
M  V30 45 H 8.428019 2.150961 -14.865751 0
M  V30 46 H 5.663798 7.448889 -14.376188 0
M  V30 47 H 8.899610 4.375845 -13.919782 0
M  V30 48 H 7.942585 3.390641 -12.824887 0
M  V30 49 H 9.911104 6.434312 -6.700192 0
M  V30 50 H 11.636968 9.575554 -7.724181 0
M  V30 51 H 12.527452 8.213763 -7.137688 0
M  V30 52 H 10.211347 7.328839 -11.578516 0
M  V30 53 H 11.527244 5.588403 -2.875804 0
M  V30 END ATOM
M  V30 BEGIN BOND
M  V30 1 1 4 2
M  V30 2 1 6 2
M  V30 3 1 7 3
M  V30 4 1 8 1
M  V30 5 1 8 3
M  V30 6 1 10 1
M  V30 7 1 12 2
M  V30 8 1 13 11
M  V30 9 2 14 11
M  V30 10 1 16 6
M  V30 11 1 17 15
M  V30 12 2 18 7
M  V30 13 1 18 14
M  V30 14 1 19 9
M  V30 15 1 20 3
M  V30 16 1 20 17
M  V30 17 2 21 15
M  V30 18 2 22 19
M  V30 19 2 23 6
M  V30 20 1 24 4
M  V30 21 1 24 19
M  V30 22 2 25 9
M  V30 23 1 26 5
M  V30 24 1 26 22
M  V30 25 1 27 10
M  V30 26 1 27 25
M  V30 27 2 27 26
M  V30 28 2 28 12
M  V30 29 1 28 23
M  V30 30 1 29 7
M  V30 31 2 29 13
M  V30 32 1 29 15
M  V30 33 1 30 1
M  V30 34 1 3 31 CFG=1
M  V30 35 1 32 4
M  V30 36 1 33 4
M  V30 37 1 34 8
M  V30 38 1 35 8
M  V30 39 1 36 9
M  V30 40 1 37 10
M  V30 41 1 38 10
M  V30 42 1 39 11
M  V30 43 1 40 13
M  V30 44 1 41 14
M  V30 45 1 42 16
M  V30 46 1 43 16
M  V30 47 1 44 17
M  V30 48 1 45 17
M  V30 49 1 46 18
M  V30 50 1 47 20
M  V30 51 1 48 20
M  V30 52 1 49 22
M  V30 53 1 50 24
M  V30 54 1 51 24
M  V30 55 1 52 25
M  V30 56 1 53 28
M  V30 END BOND
M  V30 END CTAB
M  END
>  <i_epik_Tot_Q>  (1) 
0

>  <i_epik_Tot_abs_Q>  (1) 
0

>  <i_i_glide_confnum>  (1) 
33

>  <i_i_glide_lignum>  (1) 
126

>  <i_i_glide_posenum>  (1) 
281

>  <i_i_glide_rotatable_bonds>  (1) 
7

>  <i_lp_mmshare_version>  (1) 
72125

>  <i_m_source_file_index>  (1) 
77

>  <i_f3d_flags>  (1) 
0

>  <num_sample>  (1) 
100

>  <b_lp_Chiralities_Consistent>  (1) 
1

>  <r_epik_Charging_Adjusted_Penalty>  (1) 
1.3366453936174523

>  <r_epik_Ionization_Penalty>  (1) 
1.3374163863907844

>  <r_epik_Ionization_Penalty_Charging>  (1) 
0

>  <r_epik_Ionization_Penalty_Neutral>  (1) 
1.3374163863907844

>  <r_epik_State_Penalty>  (1) 
1.3366453936174523

>  <r_glide_ring_energy>  (1) 
0

>  <r_i_docking_score>  (1) 
-4.9877166290028345

>  <r_i_glide_ecoul>  (1) 
-1.5075668915209097

>  <r_i_glide_eff_state_penalty>  (1) 
1.3366453936174523

>  <r_i_glide_einternal>  (1) 
8.9325947232437759

>  <r_i_glide_emodel>  (1) 
-52.829282320639038

>  <r_i_glide_emodel_strain>  (1) 
0.19092090136432205

>  <r_i_glide_energy>  (1) 
-40.684855823955743

>  <r_i_glide_erotb>  (1) 
0.75709287640511513

>  <r_i_glide_esite>  (1) 
-0.026481280848284817

>  <r_i_glide_evdw>  (1) 
-39.177288932434834

>  <r_i_glide_gscore>  (1) 
-6.3243620226202868

>  <r_i_glide_gscore_strain>  (1) 
0

>  <r_i_glide_hbond>  (1) 
-0.22882388650865412

>  <r_i_glide_ligand_efficiency>  (1) 
-0.17199022858630464

>  <r_i_glide_ligand_efficiency_ln>  (1) 
-1.1420606304607219

>  <r_i_glide_ligand_efficiency_sa>  (1) 
-0.52840847313925887

>  <r_i_glide_lipo>  (1) 
-2.0092768199880022

>  <r_i_glide_metal>  (1) 
-0

>  <r_i_glide_rewards>  (1) 
-2.631873431330582

>  <r_lp_Energy>  (1) 
25.694416999999998

>  <r_lp_tautomer_probability>  (1) 
0.99994999147066566

>  <s_epik_cmdline>  (1) 
J2VwaWtfcHl0aG9uJywgJy1waHQnLCAnMS4wJywgJy1waCcsICc3LjQnLCAnLXRuJywgJzgnLCAnLW1hJywgJzUwMCcsICctaW1hZScsICc8aW5maWxlLm1hZT4nLCAnLW9tYWUnLCAnPG91dGZpbGUubWFlPic=

>  <s_epik_input>  (1) 
W2NIXTFbY0hdW2NIXVtjSF1jKGMxMilDKD1PKVtDSDJdW0NIMl1bQ0BIXTJbQ0gyXVtOSF1bQ0gyXWMoYyhGKVtjSF0zKVtjSF1bY0hdYzNbQ0gyXVtDSDJdbjRjKFtOSDJdKW5bY0hdbjQ=

>  <s_glide_docking_method>  (1) 
confgen

>  <s_i_glide_gridfile>  (1) 
gpcr_drd2_6luq_protein_autoprepared_prepared

>  <s_lp_Force_Field>  (1) 
S-OPLS

>  <s_lp_Variant>  (1) 
DiffSBDD_76-3

>  <s_m_source_file>  (1) 
generated_generic_title2_ligand_DiffSBDD_2026-06-23_prepared.sdf

>  <GenAI_Model>  (1) 
DiffSBDD

>  <Protein>  (1) 
generic_title2

$$$$
DiffSBDD_90
     RDKit          3D

  0  0  0  0  0  0  0  0  0  0999 V3000
M  V30 BEGIN CTAB
M  V30 COUNTS 80 84 0 0 1
M  V30 BEGIN ATOM
M  V30 1 C 7.429146 6.921514 -13.435503 0
M  V30 2 C 8.578712 5.987849 -13.048716 0 CFG=1
M  V30 3 C 9.972000 7.583309 -10.076701 0
M  V30 4 C 8.975893 5.337926 -17.933496 0 CFG=2
M  V30 5 C 10.810436 6.868523 -11.963882 0
M  V30 6 C 9.982351 8.181948 -8.768097 0 CFG=2
M  V30 7 C 7.061033 3.579160 -15.021717 0 CFG=2
M  V30 8 O 6.695066 6.299973 -15.527621 0 CHG=-1
M  V30 9 C 6.477271 6.046670 -14.267763 0 CFG=1
M  V30 10 C 9.769692 5.820099 -20.333213 0
M  V30 11 O 6.469029 3.520351 -19.148456 0
M  V30 12 C 9.454193 6.600643 -11.994437 0
M  V30 13 C 7.236630 4.029948 -11.668343 0 CFG=2
M  V30 14 O 4.970944 4.963581 -19.983170 0 CHG=-1
M  V30 15 O 10.135788 4.799700 -17.640710 0 CHG=-1
M  V30 16 C 8.257576 3.667416 -16.045161 0 CFG=2
M  V30 17 N 7.942344 4.668341 -17.095735 0 CHG=1
M  V30 18 N 6.886226 4.635795 -13.978230 0 CFG=2 CHG=1
M  V30 19 C 6.011659 7.364554 -20.984525 0
M  V30 20 C 8.565539 2.318117 -16.763578 0
M  V30 21 O 7.624477 4.617761 -10.449546 0
M  V30 22 O 7.416095 1.760527 -17.380106 0
M  V30 23 O 7.774762 0.790325 -12.718133 0
M  V30 24 C 8.329490 3.249450 -12.396432 0 CFG=1
M  V30 25 C 6.123565 4.613751 -19.654944 0
M  V30 26 C 6.912256 2.244683 -14.288197 0
M  V30 27 N 11.041184 7.478715 -10.758028 0
M  V30 28 O 5.426426 6.842948 -21.935713 0
M  V30 29 C 11.549618 8.523165 -8.813555 0
M  V30 30 N 8.975411 7.070333 -10.785563 0 CHG=1
M  V30 31 C 8.681723 5.155951 -19.455775 0 CFG=2
M  V30 32 O 10.361151 8.265861 -5.852331 0
M  V30 33 O 9.650952 7.221777 -7.779550 0
M  V30 34 C 9.275066 7.773274 -6.564891 0
M  V30 35 C 5.541386 8.707917 -20.435374 0
M  V30 36 C 7.266839 5.651048 -19.864771 0
M  V30 37 C 8.061702 2.028397 -13.312766 0 CFG=2
M  V30 38 C 11.157176 7.236052 -5.285130 0
M  V30 39 N 7.116025 6.856769 -20.318657 0
M  V30 40 C 12.230813 7.992699 -10.165437 0
M  V30 41 C 7.882849 4.634382 -12.898430 0 CFG=1
M  V30 42 H 6.904144 7.251836 -12.537503 0
M  V30 43 H 7.774899 7.820754 -13.948537 0
M  V30 44 H 9.211520 5.883081 -13.930077 0
M  V30 45 H 8.802431 6.390151 -17.749417 0
M  V30 46 H 11.591700 6.688059 -12.689339 0
M  V30 47 H 9.329767 9.055624 -8.802975 0
M  V30 48 H 6.175560 3.687319 -15.585004 0
M  V30 49 H 5.481236 6.153666 -13.834428 0
M  V30 50 H 9.555452 5.687836 -21.394668 0
M  V30 51 H 9.850678 6.889423 -20.134008 0
M  V30 52 H 10.749139 5.379360 -20.146542 0
M  V30 53 H 6.202733 3.687480 -11.688678 0
M  V30 54 H 9.139524 3.990167 -15.493147 0
M  V30 55 H 7.270251 4.248362 -17.733570 0
M  V30 56 H 8.961646 1.584253 -16.063808 0
M  V30 57 H 9.337510 2.422378 -17.525117 0
M  V30 58 H 7.085025 4.276446 -9.748440 0
M  V30 59 H 7.116757 2.323519 -18.100005 0
M  V30 60 H 6.921365 0.817887 -12.314042 0
M  V30 61 H 9.286641 3.196755 -11.878708 0
M  V30 62 H 5.967389 2.240301 -13.741590 0
M  V30 63 H 6.825509 1.402616 -14.973667 0
M  V30 64 H 11.686862 9.601176 -8.745877 0
M  V30 65 H 12.060959 8.102747 -7.947994 0
M  V30 66 H 8.752223 4.092653 -19.689729 0
M  V30 67 H 8.548971 8.573330 -6.719254 0
M  V30 68 H 8.770193 6.993964 -5.993171 0
M  V30 69 H 5.310184 8.620745 -19.373362 0
M  V30 70 H 6.318100 9.462098 -20.563281 0
M  V30 71 H 4.641473 9.044709 -20.950851 0
M  V30 72 H 8.975409 1.820916 -13.848785 0
M  V30 73 H 11.971388 7.682652 -4.716546 0
M  V30 74 H 10.580136 6.611996 -4.600878 0
M  V30 75 H 11.588771 6.595271 -6.054988 0
M  V30 76 H 12.936095 7.190225 -9.981849 0
M  V30 77 H 12.660909 8.779919 -10.784719 0
M  V30 78 H 7.999516 7.041722 -10.472877 0
M  V30 79 H 7.447787 5.423401 -16.575881 0
M  V30 80 H 6.056786 4.301781 -13.512715 0
M  V30 END ATOM
M  V30 BEGIN BOND
M  V30 1 1 2 1
M  V30 2 1 6 3
M  V30 3 1 9 1
M  V30 4 1 9 8
M  V30 5 1 12 2
M  V30 6 2 12 5
M  V30 7 1 15 4
M  V30 8 1 16 7
M  V30 9 1 17 4
M  V30 10 1 17 16
M  V30 11 1 18 7
M  V30 12 1 18 9
M  V30 13 1 20 16
M  V30 14 1 21 13
M  V30 15 1 22 20
M  V30 16 1 24 13
M  V30 17 2 25 11
M  V30 18 1 25 14
M  V30 19 1 26 7
M  V30 20 1 27 3
M  V30 21 1 27 5
M  V30 22 2 28 19
M  V30 23 1 29 6
M  V30 24 2 30 3
M  V30 25 1 30 12
M  V30 26 1 31 4
M  V30 27 1 31 10
M  V30 28 1 33 6
M  V30 29 1 34 32
M  V30 30 1 34 33
M  V30 31 1 35 19
M  V30 32 1 36 25
M  V30 33 1 36 31
M  V30 34 1 37 23
M  V30 35 1 37 24
M  V30 36 1 37 26
M  V30 37 1 38 32
M  V30 38 1 39 19
M  V30 39 2 39 36
M  V30 40 1 40 27
M  V30 41 1 40 29
M  V30 42 1 41 2 CFG=1
M  V30 43 1 41 13
M  V30 44 1 41 18
M  V30 45 1 41 24
M  V30 46 1 42 1
M  V30 47 1 43 1
M  V30 48 1 2 44 CFG=3
M  V30 49 1 4 45 CFG=1
M  V30 50 1 46 5
M  V30 51 1 6 47 CFG=3
M  V30 52 1 7 48 CFG=3
M  V30 53 1 9 49 CFG=1
M  V30 54 1 50 10
M  V30 55 1 51 10
M  V30 56 1 52 10
M  V30 57 1 13 53 CFG=3
M  V30 58 1 16 54 CFG=1
M  V30 59 1 55 17
M  V30 60 1 56 20
M  V30 61 1 57 20
M  V30 62 1 58 21
M  V30 63 1 59 22
M  V30 64 1 60 23
M  V30 65 1 24 61 CFG=1
M  V30 66 1 62 26
M  V30 67 1 63 26
M  V30 68 1 64 29
M  V30 69 1 65 29
M  V30 70 1 31 66 CFG=1
M  V30 71 1 67 34
M  V30 72 1 68 34
M  V30 73 1 69 35
M  V30 74 1 70 35
M  V30 75 1 71 35
M  V30 76 1 37 72 CFG=3
M  V30 77 1 73 38
M  V30 78 1 74 38
M  V30 79 1 75 38
M  V30 80 1 76 40
M  V30 81 1 77 40
M  V30 82 1 78 30
M  V30 83 1 79 17
M  V30 84 1 18 80 CFG=1
M  V30 END BOND
M  V30 END CTAB
M  END
>  <i_epik_Tot_Q>  (1) 
0

>  <i_epik_Tot_abs_Q>  (1) 
6

>  <i_i_glide_confnum>  (1) 
1098

>  <i_i_glide_lignum>  (1) 
169

>  <i_i_glide_posenum>  (1) 
98

>  <i_i_glide_rotatable_bonds>  (1) 
15

>  <i_lp_mmshare_version>  (1) 
72125

>  <i_m_source_file_index>  (1) 
91

>  <i_f3d_flags>  (1) 
0

>  <num_sample>  (1) 
100

>  <b_lp_Chiralities_Consistent>  (1) 
1

>  <r_epik_Charging_Adjusted_Penalty>  (1) 
0.35079833336250127

>  <r_epik_Ionization_Penalty>  (1) 
1.4702178244609605

>  <r_epik_Ionization_Penalty_Charging>  (1) 
0.099885809697688246

>  <r_epik_Ionization_Penalty_Neutral>  (1) 
1.3703320147632723

>  <r_epik_State_Penalty>  (1) 
0.25091252366481304

>  <r_glide_ring_energy>  (1) 
0

>  <r_i_docking_score>  (1) 
-4.9828502452204289

>  <r_i_glide_ecoul>  (1) 
-5.1610579603864384

>  <r_i_glide_eff_state_penalty>  (1) 
0.25091252366481304

>  <r_i_glide_einternal>  (1) 
11.737463269855235

>  <r_i_glide_emodel>  (1) 
-45.639840873007891

>  <r_i_glide_emodel_strain>  (1) 
2.6104301576795308

>  <r_i_glide_energy>  (1) 
-37.948793472525942

>  <r_i_glide_erotb>  (1) 
0.57888693115673628

>  <r_i_glide_esite>  (1) 
-0.25464404786934425

>  <r_i_glide_evdw>  (1) 
-32.787735512139506

>  <r_i_glide_gscore>  (1) 
-5.2337627688852422

>  <r_i_glide_gscore_strain>  (1) 
0

>  <r_i_glide_hbond>  (1) 
-0.16270280870215095

>  <r_i_glide_ligand_efficiency>  (1) 
-0.12153293281025436

>  <r_i_glide_ligand_efficiency_ln>  (1) 
-1.0571282616888891

>  <r_i_glide_ligand_efficiency_sa>  (1) 
-0.41907195419059512

>  <r_i_glide_lipo>  (1) 
-2.1007739684166817

>  <r_i_glide_metal>  (1) 
-0

>  <r_i_glide_rewards>  (1) 
-0.880983405388861

>  <r_lp_Energy>  (1) 
80.22188899999999

>  <r_lp_tautomer_probability>  (1) 
1

>  <s_epik_Chemistry_Notes>  (1) 
This compound has an imine and may undergo hydrolysis. This compound contains an acetal/aminal-like group ( X-CH(R)-Y where X, Y are N, S, or O) that may be acid/base labile, releasing an aldehyde.

>  <s_epik_cmdline>  (1) 
J2VwaWtfcHl0aG9uJywgJy1waHQnLCAnMS4wJywgJy1waCcsICc3LjQnLCAnLXRuJywgJzgnLCAnLW1hJywgJzUwMCcsICctaW1hZScsICc8aW5maWxlLm1hZT4nLCAnLW9tYWUnLCAnPG91dGZpbGUubWFlPic=

>  <s_epik_input>  (1) 
W0NIM11PW0NIMl1PW0NASF0xW0NIMl1bQ0gyXW4oYzEyKVtjSF1jKG4yKVtDQEBIXTNbQ0gyXVtDQEBIXShbT0hdKU4oW0NAQF0zNDUpW0NASF0oW0NIMl1bQ0BIXShbT0hdKVtDQEBIXTVbQ0BIXTRbT0hdKVtDQEBIXShbQ0gyXVtPSF0pW05IXVtDQEBIXShbT0hdKVtDQEhdKFtDSDNdKUMoXEMoPU8pW09IXSk9TlxDKD1PKVtDSDNd

>  <s_glide_docking_method>  (1) 
confgen

>  <s_i_glide_gridfile>  (1) 
gpcr_drd2_6luq_protein_autoprepared_prepared

>  <s_lp_Force_Field>  (1) 
S-OPLS

>  <s_lp_Variant>  (1) 
DiffSBDD_90-4

>  <s_m_source_file>  (1) 
generated_generic_title2_ligand_DiffSBDD_2026-06-23_prepared.sdf

>  <GenAI_Model>  (1) 
DiffSBDD

>  <Protein>  (1) 
generic_title2

$$$$
DiffSBDD_75
     RDKit          3D

  0  0  0  0  0  0  0  0  0  0999 V3000
M  V30 BEGIN CTAB
M  V30 COUNTS 71 75 0 0 1
M  V30 BEGIN ATOM
M  V30 1 C 6.982393 3.784776 -12.930814 0
M  V30 2 C 9.346343 5.727374 -10.511822 0
M  V30 3 C 10.442727 7.931575 -10.640874 0 CFG=1
M  V30 4 C 13.877018 8.402877 -9.054123 0
M  V30 5 C 11.943505 7.760163 -10.501874 0
M  V30 6 C 7.988297 -0.252251 -15.023949 0
M  V30 7 F 8.690005 -0.394931 -19.251930 0
M  V30 8 C 11.387847 8.428931 -8.209177 0 CFG=1
M  V30 9 C 7.054897 1.291078 -19.337542 0
M  V30 10 F 6.652177 -0.967491 -19.635928 0
M  V30 11 C 8.906700 4.555133 -11.401800 0
M  V30 12 C 7.952260 6.172384 -13.035099 0
M  V30 13 F 7.787564 3.494666 -19.391399 0
M  V30 14 C 7.196338 -0.475423 -17.440576 0
M  V30 15 N 9.722954 6.867784 -11.352878 0
M  V30 16 C 7.924229 2.375145 -18.681377 0 CFG=1
M  V30 17 C 7.615375 1.747885 -16.243117 0
M  V30 18 C 7.603265 3.476016 -14.301060 0
M  V30 19 C 7.951605 0.932708 -14.046602 0
M  V30 20 N 7.691326 8.205309 -11.645190 0 CHG=1
M  V30 21 C 7.635909 4.950559 -12.161412 0 CFG=1
M  V30 22 S 9.775443 8.390254 -9.017309 0
M  V30 23 C 10.765173 7.143265 -6.069946 0
M  V30 24 C 11.535153 7.124423 -7.398692 0
M  V30 25 C 8.068365 0.323252 -16.452885 0 CFG=1
M  V30 26 C 8.444947 8.719443 -12.751025 0
M  V30 27 C 7.553620 2.656712 -17.238178 0
M  V30 28 C 12.396169 8.639777 -9.362682 0 CFG=1
M  V30 29 C 8.620811 7.294544 -12.256392 0 CFG=2
M  V30 30 C 7.421744 -0.143646 -18.925137 0
M  V30 31 C 7.247653 2.064820 -14.809634 0 CFG=2
M  V30 32 H 5.924104 4.003050 -13.078613 0
M  V30 33 H 7.006189 2.894743 -12.306636 0
M  V30 34 H 8.540281 6.001110 -9.828826 0
M  V30 35 H 10.175409 5.421519 -9.882087 0
M  V30 36 H 10.382466 8.790226 -11.248309 0
M  V30 37 H 14.135742 7.384809 -8.784922 0
M  V30 38 H 14.492314 8.637326 -9.923561 0
M  V30 39 H 14.175474 9.081247 -8.255887 0
M  V30 40 H 12.180049 6.790225 -10.164390 0
M  V30 41 H 12.498610 7.939946 -11.422529 0
M  V30 42 H 8.809295 -0.935229 -14.805964 0
M  V30 43 H 7.059471 -0.809434 -14.901603 0
M  V30 44 H 11.432134 9.280862 -7.528371 0
M  V30 45 H 7.170902 1.365353 -20.419752 0
M  V30 46 H 5.999984 1.485705 -19.139295 0
M  V30 47 H 8.720082 3.678602 -10.785301 0
M  V30 48 H 9.704591 4.280187 -12.093438 0
M  V30 49 H 8.634244 5.903480 -13.840268 0
M  V30 50 H 7.040812 6.535638 -13.513581 0
M  V30 51 H 7.406246 -1.536942 -17.299570 0
M  V30 52 H 6.142768 -0.347938 -17.186486 0
M  V30 53 H 8.981755 2.117103 -18.743475 0
M  V30 54 H 8.683521 3.590197 -14.261461 0
M  V30 55 H 7.241291 4.238295 -14.988920 0
M  V30 56 H 8.972688 1.211642 -13.786674 0
M  V30 57 H 7.445289 0.676631 -13.115450 0
M  V30 58 H 6.740551 7.915671 -11.812539 0
M  V30 59 H 6.907910 5.259314 -11.408789 0
M  V30 60 H 10.868334 6.193411 -5.544104 0
M  V30 61 H 11.131876 7.929290 -5.409109 0
M  V30 62 H 9.699306 7.308747 -6.233398 0
M  V30 63 H 11.192525 6.272957 -7.987031 0
M  V30 64 H 12.575454 6.925393 -7.185019 0
M  V30 65 H 9.106930 0.333926 -16.783423 0
M  V30 66 H 8.975354 9.590042 -12.385025 0
M  V30 67 H 7.775460 8.886718 -13.589225 0
M  V30 68 H 7.222464 3.659931 -17.023362 0
M  V30 69 H 12.287861 9.671146 -9.699669 0
M  V30 70 H 6.175404 1.908629 -14.724501 0
M  V30 71 H 7.918237 8.368729 -10.661738 0
M  V30 END ATOM
M  V30 BEGIN BOND
M  V30 1 1 5 3
M  V30 2 1 11 2
M  V30 3 1 15 2
M  V30 4 1 15 3
M  V30 5 1 16 9
M  V30 6 1 16 13
M  V30 7 1 18 1
M  V30 8 1 19 6
M  V30 9 1 21 1
M  V30 10 1 21 11
M  V30 11 1 21 12
M  V30 12 1 22 3
M  V30 13 1 22 8
M  V30 14 1 24 8
M  V30 15 1 24 23
M  V30 16 1 25 6
M  V30 17 1 25 14
M  V30 18 1 25 17
M  V30 19 1 26 20
M  V30 20 1 27 16
M  V30 21 2 27 17
M  V30 22 1 28 4
M  V30 23 1 28 5
M  V30 24 1 28 8
M  V30 25 1 29 12
M  V30 26 1 29 15 CFG=1
M  V30 27 1 29 20
M  V30 28 1 29 26
M  V30 29 1 30 7
M  V30 30 1 30 9
M  V30 31 1 30 10
M  V30 32 1 30 14
M  V30 33 1 31 17
M  V30 34 1 31 18
M  V30 35 1 31 19
M  V30 36 1 32 1
M  V30 37 1 33 1
M  V30 38 1 34 2
M  V30 39 1 35 2
M  V30 40 1 3 36 CFG=3
M  V30 41 1 37 4
M  V30 42 1 38 4
M  V30 43 1 39 4
M  V30 44 1 40 5
M  V30 45 1 41 5
M  V30 46 1 42 6
M  V30 47 1 43 6
M  V30 48 1 8 44 CFG=1
M  V30 49 1 45 9
M  V30 50 1 46 9
M  V30 51 1 47 11
M  V30 52 1 48 11
M  V30 53 1 49 12
M  V30 54 1 50 12
M  V30 55 1 51 14
M  V30 56 1 52 14
M  V30 57 1 16 53 CFG=1
M  V30 58 1 54 18
M  V30 59 1 55 18
M  V30 60 1 56 19
M  V30 61 1 57 19
M  V30 62 1 58 20
M  V30 63 1 21 59 CFG=1
M  V30 64 1 60 23
M  V30 65 1 61 23
M  V30 66 1 62 23
M  V30 67 1 63 24
M  V30 68 1 64 24
M  V30 69 1 25 65 CFG=3
M  V30 70 1 66 26
M  V30 71 1 67 26
M  V30 72 1 68 27
M  V30 73 1 28 69 CFG=3
M  V30 74 1 31 70 CFG=3
M  V30 75 1 71 20
M  V30 END BOND
M  V30 END CTAB
M  END
>  <i_epik_Tot_Q>  (1) 
1

>  <i_epik_Tot_abs_Q>  (1) 
1

>  <i_i_glide_confnum>  (1) 
34

>  <i_i_glide_lignum>  (1) 
123

>  <i_i_glide_posenum>  (1) 
343

>  <i_i_glide_rotatable_bonds>  (1) 
5

>  <i_lp_mmshare_version>  (1) 
72125

>  <i_m_source_file_index>  (1) 
76

>  <i_f3d_flags>  (1) 
0

>  <num_sample>  (1) 
100

>  <b_lp_Chiralities_Consistent>  (1) 
1

>  <r_epik_Charging_Adjusted_Penalty>  (1) 
0.021643694203304514

>  <r_epik_Ionization_Penalty>  (1) 
0.021651518670722316

>  <r_epik_Ionization_Penalty_Charging>  (1) 
0.021643694203304514

>  <r_epik_Ionization_Penalty_Neutral>  (1) 
7.8244674178018311e-06

>  <r_epik_State_Penalty>  (1) 
-0

>  <r_glide_ring_energy>  (1) 
0

>  <r_i_docking_score>  (1) 
-4.9816531965359445

>  <r_i_glide_ecoul>  (1) 
-5.5270810461373676

>  <r_i_glide_eff_state_penalty>  (1) 
-0

>  <r_i_glide_einternal>  (1) 
1.6497079617046033

>  <r_i_glide_emodel>  (1) 
-29.456485292839425

>  <r_i_glide_emodel_strain>  (1) 
0.34587327717341054

>  <r_i_glide_energy>  (1) 
-24.477965917669874

>  <r_i_glide_erotb>  (1) 
0.38396893463604614

>  <r_i_glide_esite>  (1) 
-0.14814615616181143

>  <r_i_glide_evdw>  (1) 
-18.950884871532505

>  <r_i_glide_gscore>  (1) 
-4.9816531965359445

>  <r_i_glide_gscore_strain>  (1) 
0

>  <r_i_glide_hbond>  (1) 
-0.090207703045410204

>  <r_i_glide_ligand_efficiency>  (1) 
-0.16069849021083693

>  <r_i_glide_ligand_efficiency_ln>  (1) 
-1.1235154651544355

>  <r_i_glide_ligand_efficiency_sa>  (1) 
-0.50481512801683082

>  <r_i_glide_lipo>  (1) 
-2.2528770630052906

>  <r_i_glide_metal>  (1) 
-0

>  <r_i_glide_rewards>  (1) 
-1.0977848084622479

>  <r_lp_Energy>  (1) 
29.145934999999998

>  <r_lp_tautomer_probability>  (1) 
1

>  <s_epik_Chemistry_Notes>  (1) 
This compound contains an acetal/aminal-like group ( X-CH(R)-Y where X, Y are N, S, or O) that may be acid/base labile, releasing an aldehyde.

>  <s_epik_cmdline>  (1) 
J2VwaWtfcHl0aG9uJywgJy1waHQnLCAnMS4wJywgJy1waCcsICc3LjQnLCAnLXRuJywgJzgnLCAnLW1hJywgJzUwMCcsICctaW1hZScsICc8aW5maWxlLm1hZT4nLCAnLW9tYWUnLCAnPG91dGZpbGUubWFlPic=

>  <s_epik_input>  (1) 
W0NIM11bQ0gyXVtDQEhdKFMxKVtDQEBIXShbQ0gzXSlbQ0gyXVtDQEhdMU4yW0NIMl1bQ0gyXVtDQEBIXShbQ0gyXVtDQEBdMjNbTkhdW0NIMl0zKVtDSDJdW0NIMl1bQ0BASF00W0NIMl1bQ0gyXVtDQEhdKEM0PTUpW0NIMl1DKEYpKEYpW0NIMl1bQ0BASF0oRilbQ0hdNQ==

>  <s_glide_docking_method>  (1) 
confgen

>  <s_i_glide_gridfile>  (1) 
gpcr_drd2_6luq_protein_autoprepared_prepared

>  <s_lp_Force_Field>  (1) 
S-OPLS

>  <s_lp_Variant>  (1) 
DiffSBDD_75-1

>  <s_m_source_file>  (1) 
generated_generic_title2_ligand_DiffSBDD_2026-06-23_prepared.sdf

>  <GenAI_Model>  (1) 
DiffSBDD

>  <Protein>  (1) 
generic_title2

$$$$
DiffSBDD_60
     RDKit          3D

  0  0  0  0  0  0  0  0  0  0999 V3000
M  V30 BEGIN CTAB
M  V30 COUNTS 71 74 0 0 1
M  V30 BEGIN ATOM
M  V30 1 C 9.389366 8.694372 -8.713098 0
M  V30 2 C 11.453674 7.599989 -4.808123 0
M  V30 3 C 8.173173 3.733761 -16.907850 0 CFG=1
M  V30 4 C 9.157622 4.280924 -12.331273 0
M  V30 5 C 11.109931 6.390385 -4.189664 0
M  V30 6 O 6.712877 4.491038 -12.799772 0
M  V30 7 C 11.093434 7.874886 -6.165403 0
M  V30 8 C 11.546295 6.130960 -2.869516 0
M  V30 9 N 10.364278 6.896808 -6.910325 0
M  V30 10 C 7.733574 4.672210 -19.361043 0
M  V30 11 C 12.597929 9.708100 -4.658962 0
M  V30 12 C 10.999278 6.856385 -12.192995 0
M  V30 13 S 7.890265 1.969860 -17.283597 0
M  V30 14 C 9.681328 3.965359 -17.137332 0
M  V30 15 C 11.534086 9.095214 -6.738929 0
M  V30 16 O 7.653086 3.441157 -20.049404 0
M  V30 17 C 12.209758 8.538322 -4.079059 0
M  V30 18 C 8.333206 5.058312 -14.605014 0
M  V30 19 C 6.977858 5.816417 -12.357457 0 CFG=2
M  V30 20 C 9.168403 4.526150 -10.804225 0
M  V30 21 O 7.166806 5.899989 -17.432237 0
M  V30 22 C 6.153616 6.881204 -13.014299 0
M  V30 23 O 9.206769 4.901741 -8.177014 0
M  V30 24 C 12.613643 8.278836 -2.769094 0
M  V30 25 C 9.867595 6.869551 -11.182875 0 CFG=2
M  V30 26 C 8.034654 4.982633 -13.099501 0 CFG=2
M  V30 27 C 9.478615 7.295600 -8.056893 0 CFG=2
M  V30 28 O 5.777148 6.781012 -14.180990 0
M  V30 29 C 7.268667 4.568471 -17.885996 0 CFG=2
M  V30 30 C 12.294514 7.071816 -2.173495 0
M  V30 31 C 12.268101 10.001307 -5.972321 0
M  V30 32 O 11.125246 7.515628 -10.931932 0
M  V30 33 C 9.083596 6.066832 -8.964397 0 CFG=1
M  V30 34 C 7.786575 3.844619 -15.397844 0
M  V30 35 N 9.772412 5.761589 -10.236965 0
M  V30 36 H 8.575410 8.803172 -9.420913 0
M  V30 37 H 9.164494 9.416517 -7.933931 0
M  V30 38 H 10.249904 8.974547 -9.311616 0
M  V30 39 H 9.012503 3.211695 -12.487312 0
M  V30 40 H 10.132976 4.489201 -12.762728 0
M  V30 41 H 10.544597 5.644376 -4.720891 0
M  V30 42 H 11.321918 5.197383 -2.396057 0
M  V30 43 H 10.064299 6.074989 -6.406847 0
M  V30 44 H 8.746687 5.068151 -19.437771 0
M  V30 45 H 7.092634 5.374025 -19.897819 0
M  V30 46 H 13.190369 10.389237 -4.090977 0
M  V30 47 H 11.640392 5.990695 -12.302147 0
M  V30 48 H 10.977415 7.524079 -13.046929 0
M  V30 49 H 6.588285 1.961508 -16.977034 0
M  V30 50 H 9.944908 5.015314 -17.011964 0
M  V30 51 H 10.284402 3.390937 -16.436974 0
M  V30 52 H 9.996662 3.665552 -18.137002 0
M  V30 53 H 11.352288 9.329614 -7.754405 0
M  V30 54 H 8.154702 2.795340 -19.571921 0
M  V30 55 H 9.412481 5.128030 -14.732741 0
M  V30 56 H 7.951053 5.988579 -15.011861 0
M  V30 57 H 7.051472 5.914662 -11.276746 0
M  V30 58 H 8.154272 4.375942 -10.433052 0
M  V30 59 H 9.737843 3.709600 -10.363119 0
M  V30 60 H 8.033981 6.273176 -17.400547 0
M  V30 61 H 5.912987 7.740435 -12.387613 0
M  V30 62 H 10.122519 4.839924 -7.952372 0
M  V30 63 H 13.201598 9.008061 -2.231991 0
M  V30 64 H 9.035321 7.536889 -11.396892 0
M  V30 65 H 8.576405 7.356353 -7.447491 0
M  V30 66 H 6.252933 4.176112 -17.900209 0
M  V30 67 H 12.637430 6.857714 -1.185726 0
M  V30 68 H 12.601345 10.926105 -6.391749 0
M  V30 69 H 8.030542 6.107202 -9.206661 0
M  V30 70 H 6.699750 3.820218 -15.308940 0
M  V30 71 H 8.137548 2.953253 -14.874379 0
M  V30 END ATOM
M  V30 BEGIN BOND
M  V30 1 2 5 2
M  V30 2 1 7 2
M  V30 3 1 8 5
M  V30 4 1 9 7
M  V30 5 1 3 13 CFG=3
M  V30 6 1 14 3
M  V30 7 2 15 7
M  V30 8 1 16 10
M  V30 9 1 17 2
M  V30 10 1 17 11
M  V30 11 1 19 6
M  V30 12 1 20 4
M  V30 13 1 22 19
M  V30 14 2 24 17
M  V30 15 1 25 12
M  V30 16 1 26 4 CFG=1
M  V30 17 1 26 6
M  V30 18 1 26 18
M  V30 19 1 26 19
M  V30 20 1 27 1
M  V30 21 1 27 9
M  V30 22 2 28 22
M  V30 23 1 29 3
M  V30 24 1 29 10
M  V30 25 1 29 21
M  V30 26 2 30 8
M  V30 27 1 30 24
M  V30 28 2 31 11
M  V30 29 1 31 15
M  V30 30 1 32 12
M  V30 31 1 32 25
M  V30 32 1 33 23
M  V30 33 1 33 27
M  V30 34 1 34 3
M  V30 35 1 34 18
M  V30 36 1 35 20
M  V30 37 1 35 25
M  V30 38 1 35 33
M  V30 39 1 36 1
M  V30 40 1 37 1
M  V30 41 1 38 1
M  V30 42 1 39 4
M  V30 43 1 40 4
M  V30 44 1 41 5
M  V30 45 1 42 8
M  V30 46 1 43 9
M  V30 47 1 44 10
M  V30 48 1 45 10
M  V30 49 1 46 11
M  V30 50 1 47 12
M  V30 51 1 48 12
M  V30 52 1 49 13
M  V30 53 1 50 14
M  V30 54 1 51 14
M  V30 55 1 52 14
M  V30 56 1 53 15
M  V30 57 1 54 16
M  V30 58 1 55 18
M  V30 59 1 56 18
M  V30 60 1 19 57 CFG=1
M  V30 61 1 58 20
M  V30 62 1 59 20
M  V30 63 1 60 21
M  V30 64 1 61 22
M  V30 65 1 62 23
M  V30 66 1 63 24
M  V30 67 1 25 64 CFG=3
M  V30 68 1 27 65 CFG=1
M  V30 69 1 29 66 CFG=3
M  V30 70 1 67 30
M  V30 71 1 68 31
M  V30 72 1 33 69 CFG=3
M  V30 73 1 70 34
M  V30 74 1 71 34
M  V30 END BOND
M  V30 END CTAB
M  END
>  <i_epik_Tot_Q>  (1) 
0

>  <i_epik_Tot_abs_Q>  (1) 
0

>  <i_i_glide_confnum>  (1) 
3587

>  <i_i_glide_lignum>  (1) 
95

>  <i_i_glide_posenum>  (1) 
172

>  <i_i_glide_rotatable_bonds>  (1) 
18

>  <i_lp_mmshare_version>  (1) 
72125

>  <i_m_source_file_index>  (1) 
61

>  <i_f3d_flags>  (1) 
0

>  <num_sample>  (1) 
100

>  <b_lp_Chiralities_Consistent>  (1) 
1

>  <r_epik_Charging_Adjusted_Penalty>  (1) 
0

>  <r_epik_Ionization_Penalty>  (1) 
0.014434527225192804

>  <r_epik_Ionization_Penalty_Charging>  (1) 
0

>  <r_epik_Ionization_Penalty_Neutral>  (1) 
0.014434527225192804

>  <r_epik_State_Penalty>  (1) 
-0

>  <r_glide_ring_energy>  (1) 
0

>  <r_i_docking_score>  (1) 
-4.9787522767769019

>  <r_i_glide_ecoul>  (1) 
-6.4129300763207588

>  <r_i_glide_eff_state_penalty>  (1) 
-0

>  <r_i_glide_einternal>  (1) 
13.580740098883759

>  <r_i_glide_emodel>  (1) 
-21.720279994289019

>  <r_i_glide_emodel_strain>  (1) 
6.7419208164859725

>  <r_i_glide_energy>  (1) 
-24.337823903866489

>  <r_i_glide_erotb>  (1) 
0.88320893883716522

>  <r_i_glide_esite>  (1) 
-0.14570910691686806

>  <r_i_glide_evdw>  (1) 
-17.924893827545731

>  <r_i_glide_gscore>  (1) 
-4.9787522767769019

>  <r_i_glide_gscore_strain>  (1) 
0.68548020412149313

>  <r_i_glide_hbond>  (1) 
0

>  <r_i_glide_ligand_efficiency>  (1) 
-0.14225006505076862

>  <r_i_glide_ligand_efficiency_ln>  (1) 
-1.0929466222058679

>  <r_i_glide_ligand_efficiency_sa>  (1) 
-0.46530939540970467

>  <r_i_glide_lipo>  (1) 
-3.8085174171603478

>  <r_i_glide_metal>  (1) 
-0

>  <r_i_glide_rewards>  (1) 
-0.73503069283294475

>  <r_lp_Energy>  (1) 
38.450359999999996

>  <r_lp_tautomer_probability>  (1) 
1

>  <s_epik_Chemistry_Notes>  (1) 
This compound contains an acetal/aminal-like group ( X-CH(R)-Y where X, Y are N, S, or O) that may be acid/base labile, releasing an aldehyde.

>  <s_epik_cmdline>  (1) 
J2VwaWtfcHl0aG9uJywgJy1waHQnLCAnMS4wJywgJy1waCcsICc3LjQnLCAnLXRuJywgJzgnLCAnLW1hJywgJzUwMCcsICctaW1hZScsICc8aW5maWxlLm1hZT4nLCAnLW9tYWUnLCAnPG91dGZpbGUubWFlPic=

>  <s_epik_input>  (1) 
W2NIXTFbY0hdW2NIXVtjSF1jKGMxMilbY0hdW2NIXVtjSF1jMltOSF1bQ0BASF0oW0NIM10pW0NASF0oW09IXSlOKFtDQEBIXTNbQ0gyXU8zKVtDSDJdW0NIMl1bQ0BAXTQoT1tDQEBIXTRbQ0hdPU8pW0NIMl1bQ0gyXVtDQF0oW1NIXSkoW0NIM10pW0NAQEhdKFtPSF0pW0NIMl1bT0hd

>  <s_glide_docking_method>  (1) 
confgen

>  <s_i_glide_gridfile>  (1) 
gpcr_drd2_6luq_protein_autoprepared_prepared

>  <s_lp_Force_Field>  (1) 
S-OPLS

>  <s_lp_Variant>  (1) 
DiffSBDD_60-1

>  <s_m_source_file>  (1) 
generated_generic_title2_ligand_DiffSBDD_2026-06-23_prepared.sdf

>  <GenAI_Model>  (1) 
DiffSBDD

>  <Protein>  (1) 
generic_title2

$$$$
DiffSBDD_9
     RDKit          3D

  0  0  0  0  0  0  0  0  0  0999 V3000
M  V30 BEGIN CTAB
M  V30 COUNTS 65 70 0 0 1
M  V30 BEGIN ATOM
M  V30 1 C 10.074890 4.367450 -18.292409 0
M  V30 2 O 7.031069 5.372310 -20.099614 0
M  V30 3 C 9.709576 4.655079 -16.965942 0
M  V30 4 C 10.975853 7.662718 -5.138541 0 CFG=2
M  V30 5 C 11.932354 7.218928 -2.750177 0
M  V30 6 C 8.738323 5.214001 -10.513133 0
M  V30 7 C 6.766754 4.880280 -14.832124 0 CFG=2
M  V30 8 C 5.763188 6.008621 -14.815603 0
M  V30 9 C 12.459035 9.535369 -2.312331 0
M  V30 10 O 10.930870 7.194999 -9.767672 0
M  V30 11 C 9.173033 4.610445 -19.341584 0
M  V30 12 C 10.977400 8.602130 -6.346716 0
M  V30 13 C 8.117049 4.192169 -11.551904 0
M  V30 14 O 8.871806 4.952895 -9.317427 0
M  V30 15 C 11.940286 8.085682 -4.021540 0 CFG=2
M  V30 16 N 11.737677 9.465409 -3.575585 0 CHG=1
M  V30 17 N 8.266900 5.120003 -12.731113 0
M  V30 18 C 9.735951 7.586304 -10.414173 0
M  V30 19 C 12.225660 8.206785 -1.615631 0
M  V30 20 C 8.824622 6.319683 -12.403909 0
M  V30 21 C 7.520301 5.441425 -17.737782 0
M  V30 22 C 5.808447 6.821872 -16.143211 0
M  V30 23 O 11.213275 8.190415 -8.691266 0
M  V30 24 C 9.109874 6.429144 -11.156265 0
M  V30 25 C 11.498753 6.429481 -7.019246 0
M  V30 26 C 6.109164 6.030326 -17.455595 0
M  V30 27 C 8.065541 4.609572 -14.079376 0 CFG=2
M  V30 28 C 8.067480 5.499234 -15.274706 0 CFG=1
M  V30 29 C 10.713322 7.650176 -7.482661 0 CFG=1
M  V30 30 C 8.437087 5.190207 -16.673865 0
M  V30 31 O 11.371261 6.390204 -5.612245 0
M  V30 32 C 7.899467 5.143700 -19.070556 0
M  V30 33 H 11.051813 3.959029 -18.505325 0
M  V30 34 H 6.193855 5.700655 -19.814249 0
M  V30 35 H 10.410197 4.467745 -16.164350 0
M  V30 36 H 9.960229 7.535144 -4.785032 0
M  V30 37 H 10.975417 6.724003 -2.589686 0
M  V30 38 H 12.684902 6.431583 -2.804363 0
M  V30 39 H 6.424691 4.008156 -15.380726 0
M  V30 40 H 5.954508 6.662780 -13.963321 0
M  V30 41 H 4.771029 5.590190 -14.661621 0
M  V30 42 H 12.175401 10.390211 -1.705043 0
M  V30 43 H 13.506638 9.590226 -2.591823 0
M  V30 44 H 9.458741 4.387401 -20.359782 0
M  V30 45 H 11.956915 9.065185 -6.479559 0
M  V30 46 H 10.230024 9.393141 -6.278937 0
M  V30 47 H 7.072713 3.970824 -11.332926 0
M  V30 48 H 8.715277 3.285886 -11.648676 0
M  V30 49 H 12.960052 8.099082 -4.385011 0
M  V30 50 H 12.092969 10.129463 -4.248550 0
M  V30 51 H 9.955178 8.390304 -11.113608 0
M  V30 52 H 9.008939 7.966543 -9.699962 0
M  V30 53 H 11.375342 8.305547 -0.948256 0
M  V30 54 H 13.085888 7.922955 -1.012045 0
M  V30 55 H 8.976857 7.042348 -13.184958 0
M  V30 56 H 6.516373 7.648138 -16.059712 0
M  V30 57 H 4.840641 7.310473 -16.254355 0
M  V30 58 H 11.186006 5.500989 -7.495390 0
M  V30 59 H 12.561002 6.587941 -7.185027 0
M  V30 60 H 5.898552 6.732700 -18.263031 0
M  V30 61 H 5.383623 5.229016 -17.585041 0
M  V30 62 H 8.525759 3.629604 -14.192373 0
M  V30 63 H 8.189551 6.561650 -15.103316 0
M  V30 64 H 9.647797 7.423154 -7.546834 0
M  V30 65 H 10.757496 9.632946 -3.404722 0
M  V30 END ATOM
M  V30 BEGIN BOND
M  V30 1 1 3 1
M  V30 2 1 8 7
M  V30 3 2 11 1
M  V30 4 1 12 4
M  V30 5 1 13 6
M  V30 6 2 14 6
M  V30 7 1 15 4
M  V30 8 1 15 5
M  V30 9 1 16 9
M  V30 10 1 16 15
M  V30 11 1 17 13
M  V30 12 1 18 10
M  V30 13 1 19 5
M  V30 14 1 19 9
M  V30 15 1 20 17
M  V30 16 1 22 8
M  V30 17 1 23 10
M  V30 18 1 24 6
M  V30 19 1 24 18
M  V30 20 2 24 20
M  V30 21 1 26 21
M  V30 22 1 26 22
M  V30 23 1 27 7
M  V30 24 1 27 17
M  V30 25 1 28 7
M  V30 26 1 28 27
M  V30 27 1 29 12
M  V30 28 1 29 23
M  V30 29 1 29 25
M  V30 30 2 30 3
M  V30 31 1 30 21
M  V30 32 1 30 28
M  V30 33 1 31 4
M  V30 34 1 31 25
M  V30 35 1 32 2
M  V30 36 1 32 11
M  V30 37 2 32 21
M  V30 38 1 33 1
M  V30 39 1 34 2
M  V30 40 1 35 3
M  V30 41 1 4 36 CFG=1
M  V30 42 1 37 5
M  V30 43 1 38 5
M  V30 44 1 7 39 CFG=3
M  V30 45 1 40 8
M  V30 46 1 41 8
M  V30 47 1 42 9
M  V30 48 1 43 9
M  V30 49 1 44 11
M  V30 50 1 45 12
M  V30 51 1 46 12
M  V30 52 1 47 13
M  V30 53 1 48 13
M  V30 54 1 15 49 CFG=3
M  V30 55 1 50 16
M  V30 56 1 51 18
M  V30 57 1 52 18
M  V30 58 1 53 19
M  V30 59 1 54 19
M  V30 60 1 55 20
M  V30 61 1 56 22
M  V30 62 1 57 22
M  V30 63 1 58 25
M  V30 64 1 59 25
M  V30 65 1 60 26
M  V30 66 1 61 26
M  V30 67 1 27 62 CFG=3
M  V30 68 1 28 63 CFG=1
M  V30 69 1 29 64 CFG=3
M  V30 70 1 65 16
M  V30 END BOND
M  V30 END CTAB
M  END
>  <i_epik_Tot_Q>  (1) 
1

>  <i_epik_Tot_abs_Q>  (1) 
1

>  <i_i_glide_confnum>  (1) 
40

>  <i_i_glide_lignum>  (1) 
16

>  <i_i_glide_posenum>  (1) 
323

>  <i_i_glide_rotatable_bonds>  (1) 
7

>  <i_lp_mmshare_version>  (1) 
72125

>  <i_m_source_file_index>  (1) 
10

>  <i_f3d_flags>  (1) 
0

>  <num_sample>  (1) 
100

>  <b_lp_Chiralities_Consistent>  (1) 
1

>  <r_epik_Charging_Adjusted_Penalty>  (1) 
0.13693623870853466

>  <r_epik_Ionization_Penalty>  (1) 
0.069127027575875924

>  <r_epik_Ionization_Penalty_Charging>  (1) 
0.068788428358952047

>  <r_epik_Ionization_Penalty_Neutral>  (1) 
0.00033859921692387109

>  <r_epik_State_Penalty>  (1) 
0.06814781034958263

>  <r_glide_ring_energy>  (1) 
0.028054261374209404

>  <r_i_docking_score>  (1) 
-4.9786761626616167

>  <r_i_glide_ecoul>  (1) 
0.086547021120665812

>  <r_i_glide_eff_state_penalty>  (1) 
0.06814781034958263

>  <r_i_glide_einternal>  (1) 
1.1913818239466449

>  <r_i_glide_emodel>  (1) 
-37.201639907274888

>  <r_i_glide_emodel_strain>  (1) 
0.87518951944920786

>  <r_i_glide_energy>  (1) 
-30.620340256209161

>  <r_i_glide_erotb>  (1) 
0.61474503349198251

>  <r_i_glide_esite>  (1) 
-0.02682847095411427

>  <r_i_glide_evdw>  (1) 
-30.706887277329827

>  <r_i_glide_gscore>  (1) 
-5.0468239730111994

>  <r_i_glide_gscore_strain>  (1) 
0

>  <r_i_glide_hbond>  (1) 
0

>  <r_i_glide_ligand_efficiency>  (1) 
-0.15558363008317552

>  <r_i_glide_ligand_efficiency_ln>  (1) 
-1.1148613064064781

>  <r_i_glide_ligand_efficiency_sa>  (1) 
-0.49394723612612812

>  <r_i_glide_lipo>  (1) 
-3.1971390646882134

>  <r_i_glide_metal>  (1) 
-0

>  <r_i_glide_rewards>  (1) 
-0.91523916016246243

>  <r_lp_Energy>  (1) 
34.162976

>  <r_lp_tautomer_probability>  (1) 
0.98846045845453334

>  <s_epik_Chemistry_Notes>  (1) 
This compound has an imine and may undergo hydrolysis.

>  <s_epik_cmdline>  (1) 
J2VwaWtfcHl0aG9uJywgJy1waHQnLCAnMS4wJywgJy1waCcsICc3LjQnLCAnLXRuJywgJzgnLCAnLW1hJywgJzUwMCcsICctaW1hZScsICc8aW5maWxlLm1hZT4nLCAnLW9tYWUnLCAnPG91dGZpbGUubWFlPic=

>  <s_epik_input>  (1) 
W2NIXTFbY0hdW2NIXWMoW09IXSljKFtDSDJdW0NIMl1bQ0gyXTIpYzFbQ0BASF0oW0NASF0yMylbQ0hdM24oW2NIXWM0W09IXSlbY0hdYzRbQ0gyXU9PW0NAQEhdKFtDSDJdTzUpW0NIMl1bQ0BASF01W0NAQEhdNltDSDJdW0NIMl1bQ0gyXVtOSF02

>  <s_glide_docking_method>  (1) 
confgen

>  <s_i_glide_gridfile>  (1) 
gpcr_drd2_6luq_protein_autoprepared_prepared

>  <s_lp_Force_Field>  (1) 
S-OPLS

>  <s_lp_Variant>  (1) 
DiffSBDD_9-1

>  <s_m_source_file>  (1) 
generated_generic_title2_ligand_DiffSBDD_2026-06-23_prepared.sdf

>  <GenAI_Model>  (1) 
DiffSBDD

>  <Protein>  (1) 
generic_title2

$$$$
DiffSBDD_28
     RDKit          3D

  0  0  0  0  0  0  0  0  0  0999 V3000
M  V30 BEGIN CTAB
M  V30 COUNTS 61 65 0 0 1
M  V30 BEGIN ATOM
M  V30 1 C 8.970195 5.049872 -14.061610 0 CFG=1
M  V30 2 F 7.237765 2.662950 -14.440415 0
M  V30 3 C 7.774713 3.925815 -16.409596 0
M  V30 4 C 9.203236 4.633681 -9.426971 0
M  V30 5 C 9.430571 6.144536 -9.400653 0
M  V30 6 C 8.801654 2.768353 -18.302890 0
M  V30 7 C 10.176029 8.924723 -6.028741 0 CFG=2
M  V30 8 O 12.254077 9.589912 -6.785051 0
M  V30 9 C 11.157418 7.855893 -5.624328 0
M  V30 10 C 8.821375 1.571138 -17.562729 0
M  V30 11 C 10.543797 6.573694 -8.404161 0
M  V30 12 C 12.556372 7.906607 -9.056381 0
M  V30 13 C 10.111406 5.226051 -15.074349 0
M  V30 14 C 9.376922 5.384032 -12.614932 0 CFG=1
M  V30 15 Cl 9.470603 0.134089 -18.262526 0
M  V30 16 O 6.103004 7.247945 -14.361783 0
M  V30 17 C 7.845520 7.276482 -12.685906 0 CFG=1
M  V30 18 O 8.938902 8.380522 -6.385061 0
M  V30 19 C 8.300613 1.542507 -16.256024 0
M  V30 20 C 8.180553 5.530521 -8.782308 0
M  V30 21 C 7.144652 6.714031 -13.963638 0
M  V30 22 O 9.310978 6.811094 -10.697247 0
M  V30 23 O 6.856081 7.990103 -11.985043 0
M  V30 24 N 7.730891 5.634803 -14.600969 0
M  V30 25 C 7.774989 2.712803 -15.678030 0
M  V30 26 C 11.140528 8.021504 -8.436959 0
M  V30 27 C 10.404484 9.041816 -9.314035 0
M  V30 28 O 10.975405 5.769570 -7.584745 0
M  V30 29 C 11.290866 8.581292 -6.970417 0 CFG=1
M  V30 30 C 8.482596 6.233604 -11.751300 0 CFG=2
M  V30 31 C 7.188971 5.189189 -15.816906 0
M  V30 32 C 8.969160 3.997265 -12.952043 0
M  V30 33 C 8.270014 3.941326 -17.732465 0
M  V30 34 O 6.286043 5.772040 -16.424805 0
M  V30 35 H 8.901105 4.121480 -10.331333 0
M  V30 36 H 9.776313 3.993135 -8.761833 0
M  V30 37 H 9.190927 2.786809 -19.310604 0
M  V30 38 H 10.175417 9.864333 -5.481096 0
M  V30 39 H 12.413648 9.681244 -5.858906 0
M  V30 40 H 10.723393 6.865889 -5.518733 0
M  V30 41 H 11.854920 8.106415 -4.827457 0
M  V30 42 H 12.921369 8.864151 -9.428738 0
M  V30 43 H 13.292770 7.590316 -8.319314 0
M  V30 44 H 12.575246 7.217503 -9.901558 0
M  V30 45 H 11.001162 5.601087 -14.585645 0
M  V30 46 H 10.362599 4.302357 -15.585019 0
M  V30 47 H 9.865267 5.960546 -15.843531 0
M  V30 48 H 10.438877 5.529224 -12.423070 0
M  V30 49 H 8.604691 7.990230 -12.996070 0
M  V30 50 H 8.712607 8.630846 -7.269261 0
M  V30 51 H 8.297453 0.618665 -15.696810 0
M  V30 52 H 8.116578 5.524827 -7.695600 0
M  V30 53 H 7.218032 5.590211 -9.280362 0
M  V30 54 H 7.028838 7.989813 -11.034468 0
M  V30 55 H 10.945767 9.988416 -9.250024 0
M  V30 56 H 10.446837 8.789399 -10.371226 0
M  V30 57 H 9.362653 9.189046 -9.031735 0
M  V30 58 H 7.662598 5.630580 -11.367736 0
M  V30 59 H 9.769122 3.267151 -12.862636 0
M  V30 60 H 8.020066 3.675501 -12.529761 0
M  V30 61 H 8.251632 4.858137 -18.304932 0
M  V30 END ATOM
M  V30 BEGIN BOND
M  V30 1 1 5 4
M  V30 2 1 9 7
M  V30 3 1 10 6
M  V30 4 1 11 5
M  V30 5 1 1 13 CFG=3
M  V30 6 1 14 1
M  V30 7 1 15 10
M  V30 8 1 18 7
M  V30 9 2 19 10
M  V30 10 1 20 4
M  V30 11 1 20 5
M  V30 12 2 21 16
M  V30 13 1 21 17
M  V30 14 1 22 5
M  V30 15 1 23 17
M  V30 16 1 24 1
M  V30 17 1 24 21
M  V30 18 1 25 2
M  V30 19 2 25 3
M  V30 20 1 25 19
M  V30 21 1 26 11
M  V30 22 1 26 12
M  V30 23 1 27 26
M  V30 24 2 28 11
M  V30 25 1 29 7
M  V30 26 1 29 8 CFG=3
M  V30 27 1 29 9
M  V30 28 1 29 26
M  V30 29 1 30 14
M  V30 30 1 30 17
M  V30 31 1 30 22
M  V30 32 1 31 3
M  V30 33 1 31 24
M  V30 34 1 32 1
M  V30 35 1 32 14
M  V30 36 1 33 3
M  V30 37 2 33 6
M  V30 38 2 34 31
M  V30 39 1 35 4
M  V30 40 1 36 4
M  V30 41 1 37 6
M  V30 42 1 7 38 CFG=1
M  V30 43 1 39 8
M  V30 44 1 40 9
M  V30 45 1 41 9
M  V30 46 1 42 12
M  V30 47 1 43 12
M  V30 48 1 44 12
M  V30 49 1 45 13
M  V30 50 1 46 13
M  V30 51 1 47 13
M  V30 52 1 14 48 CFG=3
M  V30 53 1 17 49 CFG=3
M  V30 54 1 50 18
M  V30 55 1 51 19
M  V30 56 1 52 20
M  V30 57 1 53 20
M  V30 58 1 54 23
M  V30 59 1 55 27
M  V30 60 1 56 27
M  V30 61 1 57 27
M  V30 62 1 30 58 CFG=1
M  V30 63 1 59 32
M  V30 64 1 60 32
M  V30 65 1 61 33
M  V30 END BOND
M  V30 END CTAB
M  END
>  <i_epik_Tot_Q>  (1) 
0

>  <i_epik_Tot_abs_Q>  (1) 
0

>  <i_i_glide_confnum>  (1) 
363

>  <i_i_glide_lignum>  (1) 
49

>  <i_i_glide_posenum>  (1) 
353

>  <i_i_glide_rotatable_bonds>  (1) 
10

>  <i_lp_mmshare_version>  (1) 
72125

>  <i_m_source_file_index>  (1) 
29

>  <i_f3d_flags>  (1) 
0

>  <num_sample>  (1) 
100

>  <b_lp_Chiralities_Consistent>  (1) 
1

>  <r_epik_Charging_Adjusted_Penalty>  (1) 
0

>  <r_epik_Ionization_Penalty>  (1) 
0.00021297919892765405

>  <r_epik_Ionization_Penalty_Charging>  (1) 
0

>  <r_epik_Ionization_Penalty_Neutral>  (1) 
0.00021297919892765405

>  <r_epik_State_Penalty>  (1) 
-0

>  <r_glide_ring_energy>  (1) 
0

>  <r_i_docking_score>  (1) 
-4.9780606114247066

>  <r_i_glide_ecoul>  (1) 
-6.1589327624636363

>  <r_i_glide_eff_state_penalty>  (1) 
-0

>  <r_i_glide_einternal>  (1) 
16.580213365500796

>  <r_i_glide_emodel>  (1) 
-33.206845667134566

>  <r_i_glide_emodel_strain>  (1) 
2.1259448538422419

>  <r_i_glide_energy>  (1) 
-35.09377958417069

>  <r_i_glide_erotb>  (1) 
0.58028021172077726

>  <r_i_glide_esite>  (1) 
-0.035166968806073694

>  <r_i_glide_evdw>  (1) 
-28.934846821707055

>  <r_i_glide_gscore>  (1) 
-4.9780606114247066

>  <r_i_glide_gscore_strain>  (1) 
0

>  <r_i_glide_hbond>  (1) 
-0.16

>  <r_i_glide_ligand_efficiency>  (1) 
-0.1464135473948443

>  <r_i_glide_ligand_efficiency_ln>  (1) 
-1.0997932189342892

>  <r_i_glide_ligand_efficiency_sa>  (1) 
-0.47432305600723784

>  <r_i_glide_lipo>  (1) 
-1.8731407666215818

>  <r_i_glide_metal>  (1) 
-0

>  <r_i_glide_rewards>  (1) 
-1.1194508322629295

>  <r_lp_Energy>  (1) 
67.434545999999997

>  <r_lp_tautomer_probability>  (1) 
1

>  <s_epik_cmdline>  (1) 
J2VwaWtfcHl0aG9uJywgJy1waHQnLCAnMS4wJywgJy1waCcsICc3LjQnLCAnLXRuJywgJzgnLCAnLW1hJywgJzUwMCcsICctaW1hZScsICc8aW5maWxlLm1hZT4nLCAnLW9tYWUnLCAnPG91dGZpbGUubWFlPic=

>  <s_epik_input>  (1) 
W0NIMl0xW0NASF0oW09IXSlbQ0BdMShbT0hdKUMoW0NIM10pKFtDSDNdKUMoPU8pQzIoW0NIMl1bQ0gyXTIpT1tDQEhdKFtDQEBIXShbQ0gyXTMpW0NAQF0zNFtDSDNdKVtDQEhdKFtPSF0pQyg9TylONEMoPU8pYzVjKEYpW2NIXWMoQ2wpW2NIXVtjSF01

>  <s_glide_docking_method>  (1) 
confgen

>  <s_i_glide_gridfile>  (1) 
gpcr_drd2_6luq_protein_autoprepared_prepared

>  <s_lp_Force_Field>  (1) 
S-OPLS

>  <s_lp_Variant>  (1) 
DiffSBDD_28-1

>  <s_m_source_file>  (1) 
generated_generic_title2_ligand_DiffSBDD_2026-06-23_prepared.sdf

>  <GenAI_Model>  (1) 
DiffSBDD

>  <Protein>  (1) 
generic_title2

$$$$
DiffSBDD_22
     RDKit          3D

  0  0  0  0  0  0  0  0  0  0999 V3000
M  V30 BEGIN CTAB
M  V30 COUNTS 28 29 0 0 1
M  V30 BEGIN ATOM
M  V30 1 C 9.808151 7.128257 -7.934912 0 CFG=1
M  V30 2 N 9.811405 5.697653 -8.185752 0
M  V30 3 C 8.545046 4.914515 -10.139576 0
M  V30 4 C 12.175386 9.190303 -2.988928 0
M  V30 5 C 10.598239 7.730086 -6.796842 0 CFG=2
M  V30 6 C 11.878445 8.871441 -4.288225 0
M  V30 7 C 8.512658 5.231757 -8.639420 0
M  V30 8 C 11.292841 6.824833 -5.793343 0
M  V30 9 C 11.642578 7.463495 -4.478413 0
M  V30 10 O 9.775529 7.841331 -9.147594 0
M  V30 11 C 9.078411 7.785906 -6.799920 0
M  V30 12 S 12.179339 7.795690 -1.985062 0
M  V30 13 C 11.775088 6.760990 -3.304899 0
M  V30 14 H 10.516070 5.463105 -8.869001 0
M  V30 15 H 7.576081 4.539855 -10.469771 0
M  V30 16 H 8.767627 5.805001 -10.728260 0
M  V30 17 H 9.291839 4.155746 -10.377851 0
M  V30 18 H 12.390493 10.158232 -2.567429 0
M  V30 19 H 11.137591 8.641350 -7.046605 0
M  V30 20 H 11.819944 9.583552 -5.097375 0
M  V30 21 H 8.242008 4.340654 -8.073565 0
M  V30 22 H 7.761594 5.986296 -8.420575 0
M  V30 23 H 10.627158 5.988558 -5.595190 0
M  V30 24 H 12.172390 6.389543 -6.267813 0
M  V30 25 H 8.850732 7.990871 -9.343926 0
M  V30 26 H 8.605901 8.750170 -6.981021 0
M  V30 27 H 8.550759 7.126299 -6.119682 0
M  V30 28 H 11.655415 5.699060 -3.144326 0
M  V30 END ATOM
M  V30 BEGIN BOND
M  V30 1 1 2 1
M  V30 2 1 5 1
M  V30 3 2 6 4
M  V30 4 1 7 2
M  V30 5 1 7 3
M  V30 6 1 8 5
M  V30 7 1 9 6
M  V30 8 1 9 8
M  V30 9 1 1 10 CFG=3
M  V30 10 1 11 1
M  V30 11 1 11 5
M  V30 12 1 12 4
M  V30 13 2 13 9
M  V30 14 1 13 12
M  V30 15 1 14 2
M  V30 16 1 15 3
M  V30 17 1 16 3
M  V30 18 1 17 3
M  V30 19 1 18 4
M  V30 20 1 5 19 CFG=3
M  V30 21 1 20 6
M  V30 22 1 21 7
M  V30 23 1 22 7
M  V30 24 1 23 8
M  V30 25 1 24 8
M  V30 26 1 25 10
M  V30 27 1 26 11
M  V30 28 1 27 11
M  V30 29 1 28 13
M  V30 END BOND
M  V30 END CTAB
M  END
>  <i_epik_Tot_Q>  (1) 
0

>  <i_epik_Tot_abs_Q>  (1) 
0

>  <i_i_glide_confnum>  (1) 
19

>  <i_i_glide_lignum>  (1) 
39

>  <i_i_glide_posenum>  (1) 
195

>  <i_i_glide_rotatable_bonds>  (1) 
5

>  <i_lp_mmshare_version>  (1) 
72125

>  <i_m_source_file_index>  (1) 
23

>  <i_f3d_flags>  (1) 
0

>  <num_sample>  (1) 
100

>  <b_lp_Chiralities_Consistent>  (1) 
1

>  <r_epik_Charging_Adjusted_Penalty>  (1) 
0.22588015367331185

>  <r_epik_Ionization_Penalty>  (1) 
0.22588404023765496

>  <r_epik_Ionization_Penalty_Charging>  (1) 
0

>  <r_epik_Ionization_Penalty_Neutral>  (1) 
0.22588404023765496

>  <r_epik_State_Penalty>  (1) 
0.22588015367331185

>  <r_glide_ring_energy>  (1) 
0

>  <r_i_docking_score>  (1) 
-4.977897391250738

>  <r_i_glide_ecoul>  (1) 
-5.4863314199513411

>  <r_i_glide_eff_state_penalty>  (1) 
0.22588015367331185

>  <r_i_glide_einternal>  (1) 
2.5967749952224919

>  <r_i_glide_emodel>  (1) 
-38.46596269925903

>  <r_i_glide_emodel_strain>  (1) 
1.0016847187243201

>  <r_i_glide_energy>  (1) 
-30.192214291770831

>  <r_i_glide_erotb>  (1) 
1.2530290316507966

>  <r_i_glide_esite>  (1) 
-0.06269334270382064

>  <r_i_glide_evdw>  (1) 
-24.70588287181949

>  <r_i_glide_gscore>  (1) 
-5.2037775449240495

>  <r_i_glide_gscore_strain>  (1) 
0

>  <r_i_glide_hbond>  (1) 
-0.16

>  <r_i_glide_ligand_efficiency>  (1) 
-0.38291518394236446

>  <r_i_glide_ligand_efficiency_ln>  (1) 
-1.3963444896718833

>  <r_i_glide_ligand_efficiency_sa>  (1) 
-0.90036175445865607

>  <r_i_glide_lipo>  (1) 
-1.8081621752940329

>  <r_i_glide_metal>  (1) 
-0

>  <r_i_glide_rewards>  (1) 
-2.367707201993317

>  <r_lp_Energy>  (1) 
-2.963994

>  <s_epik_cmdline>  (1) 
J2VwaWtfcHl0aG9uJywgJy1waHQnLCAnMS4wJywgJy1waCcsICc3LjQnLCAnLXRuJywgJzgnLCAnLW1hJywgJzUwMCcsICctaW1hZScsICc8aW5maWxlLm1hZT4nLCAnLW9tYWUnLCAnPG91dGZpbGUubWFlPic=

>  <s_epik_input>  (1) 
W0NIM11bQ0gyXVtOSF1bQ0BdMShbT0hdKVtDQEBIXShbQ0gyXTEpW0NIMl1jMltjSF1bY0hdc1tjSF0y

>  <s_glide_docking_method>  (1) 
confgen

>  <s_i_glide_gridfile>  (1) 
gpcr_drd2_6luq_protein_autoprepared_prepared

>  <s_lp_Force_Field>  (1) 
S-OPLS

>  <s_lp_Variant>  (1) 
DiffSBDD_22-1

>  <s_m_source_file>  (1) 
generated_generic_title2_ligand_DiffSBDD_2026-06-23_prepared.sdf

>  <GenAI_Model>  (1) 
DiffSBDD

>  <Protein>  (1) 
generic_title2

$$$$
DiffSBDD_89
     RDKit          3D

  0  0  0  0  0  0  0  0  0  0999 V3000
M  V30 BEGIN CTAB
M  V30 COUNTS 79 82 0 0 1
M  V30 BEGIN ATOM
M  V30 1 C 9.654640 6.686976 -7.539836 0
M  V30 2 O 5.371472 -0.353520 -17.813640 0
M  V30 3 C 7.981351 0.999417 -20.713266 0
M  V30 4 C 7.637339 0.263035 -17.369434 0
M  V30 5 C 6.296748 0.430343 -18.025937 0
M  V30 6 C 6.137193 1.625560 -18.965402 0 CFG=2
M  V30 7 F 12.917436 7.590227 -8.319490 0
M  V30 8 C 7.427879 4.748458 -9.843789 0
M  V30 9 C 8.575078 2.879087 -13.371430 0
M  V30 10 C 10.390904 5.991207 -12.637920 0
M  V30 11 F 11.608608 9.189939 -8.749820 0
M  V30 12 F 11.774322 8.454105 -6.722922 0
M  V30 13 C 5.996467 2.352967 -21.465774 0
M  V30 14 C 8.364896 4.036859 -16.774662 0 CFG=2
M  V30 15 C 9.470453 6.007687 -10.273600 0
M  V30 16 N 7.642486 2.836550 -17.320935 0
M  V30 17 C 4.537137 7.571117 -16.886550 0
M  V30 18 C 6.485116 1.284692 -20.465201 0
M  V30 19 O 9.743433 7.002056 -6.214263 0
M  V30 20 C 8.359668 4.835619 -12.070205 0
M  V30 21 C 9.381893 5.622411 -11.627669 0
M  V30 22 C 8.422797 4.412924 -13.501030 0 CFG=1
M  V30 23 C 10.516880 6.830420 -9.821967 0
M  V30 24 C 10.611200 7.181302 -8.461989 0
M  V30 25 C 7.356911 4.395497 -11.192324 0
M  V30 26 C 6.842681 2.921766 -18.441033 0
M  V30 27 O 6.662517 3.979648 -19.037440 0
M  V30 28 C 7.566305 5.166661 -15.985001 0 CFG=1
M  V30 29 C 9.370917 4.613500 -17.802898 0
M  V30 30 C 8.598799 5.868766 -7.996820 0
M  V30 31 C 11.738842 8.101855 -8.010902 0
M  V30 32 C 6.428078 5.881294 -16.771606 0 CFG=2
M  V30 33 F 6.934336 6.407243 -17.887397 0
M  V30 34 O 5.787142 0.115470 -20.856995 0
M  V30 35 C 7.886573 1.553747 -16.611764 0
M  V30 36 C 9.766250 5.191975 -13.849440 0
M  V30 37 C 7.256429 4.892676 -14.439411 0 CFG=1
M  V30 38 C 6.047510 3.990018 -14.315944 0
M  V30 39 C 5.717303 7.043936 -16.059141 0
M  V30 40 C 8.500279 5.542698 -9.367439 0
M  V30 41 H 8.611521 1.829085 -20.390159 0
M  V30 42 H 8.328151 0.100154 -20.207324 0
M  V30 43 H 8.174255 0.845672 -21.774285 0
M  V30 44 H 7.623425 -0.596657 -16.697037 0
M  V30 45 H 8.418796 0.081658 -18.105005 0
M  V30 46 H 5.074098 1.859951 -18.928058 0
M  V30 47 H 6.679376 4.390120 -9.185025 0
M  V30 48 H 8.575410 2.368225 -14.314906 0
M  V30 49 H 9.466156 2.625470 -12.791503 0
M  V30 50 H 7.758239 2.404643 -12.829475 0
M  V30 51 H 10.413587 7.072598 -12.784557 0
M  V30 52 H 11.379492 5.634260 -12.370273 0
M  V30 53 H 6.622761 3.243914 -21.439412 0
M  V30 54 H 6.029127 1.982139 -22.489810 0
M  V30 55 H 4.974342 2.668210 -21.263269 0
M  V30 56 H 9.046666 3.637113 -16.033171 0
M  V30 57 H 4.016246 8.367455 -16.359537 0
M  V30 58 H 4.870206 7.964446 -17.847708 0
M  V30 59 H 3.816039 6.777478 -17.081538 0
M  V30 60 H 10.492374 7.546516 -6.020437 0
M  V30 61 H 11.253289 7.198482 -10.518031 0
M  V30 62 H 6.553272 3.770119 -11.533289 0
M  V30 63 H 8.261823 5.990382 -15.984551 0
M  V30 64 H 10.053462 5.312565 -17.316730 0
M  V30 65 H 9.984445 3.827039 -18.240620 0
M  V30 66 H 8.892736 5.145182 -18.625453 0
M  V30 67 H 7.856102 5.506059 -7.301963 0
M  V30 68 H 5.669111 5.190330 -17.099153 0
M  V30 69 H 4.930116 0.338418 -21.209358 0
M  V30 70 H 8.923763 1.504873 -16.279046 0
M  V30 71 H 7.259538 1.513761 -15.726554 0
M  V30 72 H 10.442878 4.632371 -14.483333 0
M  V30 73 H 9.506753 5.990290 -14.499122 0
M  V30 74 H 6.984222 5.854965 -14.009548 0
M  V30 75 H 6.175410 3.245537 -15.090547 0
M  V30 76 H 5.944268 3.434573 -13.395878 0
M  V30 77 H 5.121952 4.553374 -14.388927 0
M  V30 78 H 5.325936 6.728310 -15.096548 0
M  V30 79 H 6.426119 7.846420 -15.859704 0
M  V30 END ATOM
M  V30 BEGIN BOND
M  V30 1 2 5 2
M  V30 2 1 5 4
M  V30 3 1 6 5
M  V30 4 1 16 14
M  V30 5 1 18 3
M  V30 6 1 18 6
M  V30 7 1 18 13
M  V30 8 1 19 1
M  V30 9 1 21 10
M  V30 10 1 21 15
M  V30 11 2 21 20
M  V30 12 1 22 9 CFG=1
M  V30 13 1 22 20
M  V30 14 2 23 15
M  V30 15 2 24 1
M  V30 16 1 24 23
M  V30 17 2 25 8
M  V30 18 1 25 20
M  V30 19 1 26 6
M  V30 20 1 26 16
M  V30 21 2 27 26
M  V30 22 1 28 14
M  V30 23 1 29 14
M  V30 24 1 30 1
M  V30 25 1 31 7
M  V30 26 1 31 11
M  V30 27 1 31 12
M  V30 28 1 31 24
M  V30 29 1 32 28
M  V30 30 1 33 32
M  V30 31 1 34 18
M  V30 32 1 35 4
M  V30 33 1 35 16
M  V30 34 1 36 10
M  V30 35 1 36 22
M  V30 36 1 37 22
M  V30 37 1 37 28
M  V30 38 1 38 37
M  V30 39 1 39 17
M  V30 40 1 39 32
M  V30 41 1 40 8
M  V30 42 1 40 15
M  V30 43 2 40 30
M  V30 44 1 41 3
M  V30 45 1 42 3
M  V30 46 1 43 3
M  V30 47 1 44 4
M  V30 48 1 45 4
M  V30 49 1 6 46 CFG=3
M  V30 50 1 47 8
M  V30 51 1 48 9
M  V30 52 1 49 9
M  V30 53 1 50 9
M  V30 54 1 51 10
M  V30 55 1 52 10
M  V30 56 1 53 13
M  V30 57 1 54 13
M  V30 58 1 55 13
M  V30 59 1 14 56 CFG=1
M  V30 60 1 57 17
M  V30 61 1 58 17
M  V30 62 1 59 17
M  V30 63 1 60 19
M  V30 64 1 61 23
M  V30 65 1 62 25
M  V30 66 1 28 63 CFG=1
M  V30 67 1 64 29
M  V30 68 1 65 29
M  V30 69 1 66 29
M  V30 70 1 67 30
M  V30 71 1 32 68 CFG=3
M  V30 72 1 69 34
M  V30 73 1 70 35
M  V30 74 1 71 35
M  V30 75 1 72 36
M  V30 76 1 73 36
M  V30 77 1 37 74 CFG=1
M  V30 78 1 75 38
M  V30 79 1 76 38
M  V30 80 1 77 38
M  V30 81 1 78 39
M  V30 82 1 79 39
M  V30 END BOND
M  V30 END CTAB
M  END
>  <i_epik_Tot_Q>  (1) 
0

>  <i_epik_Tot_abs_Q>  (1) 
0

>  <i_i_glide_confnum>  (1) 
406

>  <i_i_glide_lignum>  (1) 
165

>  <i_i_glide_posenum>  (1) 
337

>  <i_i_glide_rotatable_bonds>  (1) 
10

>  <i_lp_mmshare_version>  (1) 
72125

>  <i_m_source_file_index>  (1) 
90

>  <i_f3d_flags>  (1) 
0

>  <num_sample>  (1) 
100

>  <b_lp_Chiralities_Consistent>  (1) 
1

>  <r_epik_Charging_Adjusted_Penalty>  (1) 
0

>  <r_epik_Ionization_Penalty>  (1) 
0.063976020685543381

>  <r_epik_Ionization_Penalty_Charging>  (1) 
0

>  <r_epik_Ionization_Penalty_Neutral>  (1) 
0.063976020685543381

>  <r_epik_State_Penalty>  (1) 
-0

>  <r_glide_ring_energy>  (1) 
0

>  <r_i_docking_score>  (1) 
-4.9694360086772367

>  <r_i_glide_ecoul>  (1) 
-2.0664006710707938

>  <r_i_glide_eff_state_penalty>  (1) 
-0

>  <r_i_glide_einternal>  (1) 
7.1152038799826194

>  <r_i_glide_emodel>  (1) 
-19.277914710836662

>  <r_i_glide_emodel_strain>  (1) 
3.0905127761052711

>  <r_i_glide_energy>  (1) 
-20.149353398938199

>  <r_i_glide_erotb>  (1) 
0.30496708774431369

>  <r_i_glide_esite>  (1) 
0

>  <r_i_glide_evdw>  (1) 
-18.082952727867404

>  <r_i_glide_gscore>  (1) 
-4.9694360086772367

>  <r_i_glide_gscore_strain>  (1) 
0

>  <r_i_glide_hbond>  (1) 
-0.32000000000000001

>  <r_i_glide_ligand_efficiency>  (1) 
-0.12423590021693091

>  <r_i_glide_ligand_efficiency_ln>  (1) 
-1.0598344566775215

>  <r_i_glide_ligand_efficiency_sa>  (1) 
-0.42488080216935631

>  <r_i_glide_lipo>  (1) 
-2.0046768059859588

>  <r_i_glide_metal>  (1) 
-0

>  <r_i_glide_rewards>  (1) 
-1.7356185533816015

>  <r_lp_Energy>  (1) 
56.555591

>  <r_lp_tautomer_probability>  (1) 
1

>  <s_epik_cmdline>  (1) 
J2VwaWtfcHl0aG9uJywgJy1waHQnLCAnMS4wJywgJy1waCcsICc3LjQnLCAnLXRuJywgJzgnLCAnLW1hJywgJzUwMCcsICctaW1hZScsICc8aW5maWxlLm1hZT4nLCAnLW9tYWUnLCAnPG91dGZpbGUubWFlPic=

>  <s_epik_input>  (1) 
RkMoRikoRiljKFtjSF0xKWMoW09IXSlbY0hdYzJbY0hdW2NIXWMoYzNjMTIpW0NAXShbQ0gzXSkoW0NIMl1bQ0gyXTMpW0NASF0oW0NIM10pW0NASF0oW0NASF0oRilbQ0gyXVtDSDNdKVtDQEhdKFtDSDNdKU4oW0NIMl1bQ0gyXUM0PU8pQyg9TylbQ0BASF00QyhbQ0gzXSkoW0NIM10pW09IXQ==

>  <s_glide_docking_method>  (1) 
confgen

>  <s_i_glide_gridfile>  (1) 
gpcr_drd2_6luq_protein_autoprepared_prepared

>  <s_lp_Force_Field>  (1) 
S-OPLS

>  <s_lp_Variant>  (1) 
DiffSBDD_89-2

>  <s_m_source_file>  (1) 
generated_generic_title2_ligand_DiffSBDD_2026-06-23_prepared.sdf

>  <GenAI_Model>  (1) 
DiffSBDD

>  <Protein>  (1) 
generic_title2

$$$$
DiffSBDD_8
     RDKit          3D

  0  0  0  0  0  0  0  0  0  0999 V3000
M  V30 BEGIN CTAB
M  V30 COUNTS 61 63 0 0 1
M  V30 BEGIN ATOM
M  V30 1 C 7.941116 5.990206 -10.881865 0
M  V30 2 O 11.416485 7.504833 -8.141067 0
M  V30 3 C 6.398854 -0.009860 -15.901872 0
M  V30 4 N 9.375412 8.344410 -8.492043 0
M  V30 5 C 8.879212 3.795152 -16.962488 0 CFG=2
M  V30 6 C 7.386615 2.400324 -14.797011 0
M  V30 7 N 8.575419 5.589371 -8.008881 0
M  V30 8 C 11.043572 5.847657 -18.404885 0
M  V30 9 C 11.820044 3.635398 -17.370136 0
M  V30 10 O 9.466398 2.533871 -18.785039 0
M  V30 11 C 6.756131 1.051949 -16.749592 0
M  V30 12 C 10.227974 6.548126 -19.501694 0
M  V30 13 O 7.590634 3.277735 -17.071484 0
M  V30 14 S 7.150437 4.031302 -12.544580 0
M  V30 15 C 8.742342 5.102474 -16.170937 0
M  V30 16 C 7.903107 3.720216 -14.177892 0 CFG=2
M  V30 17 N 8.343460 5.124165 -11.975315 0 CFG=2 CHG=1
M  V30 18 F 5.914877 -1.159118 -16.428081 0
M  V30 19 C 8.692461 2.542728 -19.973287 0
M  V30 20 C 9.382226 4.557234 -11.125633 0
M  V30 21 C 7.692665 4.967689 -15.061517 0
M  V30 22 C 9.375449 5.877459 -10.357048 0 CFG=2
M  V30 23 C 10.885951 4.310882 -18.393457 0 CFG=1
M  V30 24 N 9.482011 3.884233 -18.279161 0
M  V30 25 C 10.243270 7.337421 -8.459510 0
M  V30 26 C 6.543789 0.118511 -14.509418 0
M  V30 27 C 7.036757 1.314859 -13.955463 0
M  V30 28 C 7.254197 2.255091 -16.213482 0
M  V30 29 C 9.718033 5.948487 -8.846045 0 CFG=1
M  V30 30 H 7.665114 6.986828 -11.219774 0
M  V30 31 H 7.178922 5.544630 -10.238655 0
M  V30 32 H 9.669141 9.270053 -8.227947 0
M  V30 33 H 8.405692 8.173528 -8.791522 0
M  V30 34 H 9.470121 3.083928 -16.385141 0
M  V30 35 H 8.814404 5.631469 -7.028226 0
M  V30 36 H 7.806283 6.247742 -8.123413 0
M  V30 37 H 10.806998 6.282142 -17.436829 0
M  V30 38 H 12.095782 6.082192 -18.569335 0
M  V30 39 H 12.863237 3.840329 -17.610443 0
M  V30 40 H 11.646165 3.998696 -16.358162 0
M  V30 41 H 11.697413 2.552032 -17.366489 0
M  V30 42 H 6.646870 0.945225 -17.818678 0
M  V30 43 H 10.445825 7.616149 -19.526867 0
M  V30 44 H 10.458774 6.139408 -20.485619 0
M  V30 45 H 9.156618 6.435992 -19.334557 0
M  V30 46 H 9.711475 5.364231 -15.747900 0
M  V30 47 H 8.442705 5.894200 -16.857573 0
M  V30 48 H 8.967582 3.590328 -13.985669 0
M  V30 49 H 8.653642 1.536348 -20.389749 0
M  V30 50 H 7.667549 2.862259 -19.778620 0
M  V30 51 H 9.127200 3.200664 -20.727448 0
M  V30 52 H 9.057345 3.700790 -10.538212 0
M  V30 53 H 10.295698 4.358471 -11.681700 0
M  V30 54 H 7.756647 5.878972 -14.467823 0
M  V30 55 H 6.680750 4.973768 -15.469946 0
M  V30 56 H 10.006973 6.575584 -10.915356 0
M  V30 57 H 11.213296 3.976329 -19.379064 0
M  V30 58 H 6.271709 -0.703601 -13.862610 0
M  V30 59 H 7.140613 1.399806 -12.884779 0
M  V30 60 H 10.512468 5.233516 -8.631535 0
M  V30 61 H 8.771801 5.684550 -12.697683 0
M  V30 END ATOM
M  V30 BEGIN BOND
M  V30 1 2 11 3
M  V30 2 1 12 8
M  V30 3 1 13 5
M  V30 4 1 15 5
M  V30 5 1 16 6
M  V30 6 1 16 14
M  V30 7 1 17 1
M  V30 8 1 17 14
M  V30 9 1 18 3
M  V30 10 1 19 10
M  V30 11 1 20 17
M  V30 12 1 21 15
M  V30 13 1 21 16
M  V30 14 1 22 1
M  V30 15 1 22 20
M  V30 16 1 23 8
M  V30 17 1 23 9
M  V30 18 1 24 5
M  V30 19 1 24 10
M  V30 20 1 24 23
M  V30 21 2 25 2
M  V30 22 1 25 4
M  V30 23 1 26 3
M  V30 24 1 27 6
M  V30 25 2 27 26
M  V30 26 2 28 6
M  V30 27 1 28 11
M  V30 28 1 28 13
M  V30 29 1 29 7
M  V30 30 1 29 22
M  V30 31 1 29 25
M  V30 32 1 30 1
M  V30 33 1 31 1
M  V30 34 1 32 4
M  V30 35 1 33 4
M  V30 36 1 5 34 CFG=1
M  V30 37 1 35 7
M  V30 38 1 36 7
M  V30 39 1 37 8
M  V30 40 1 38 8
M  V30 41 1 39 9
M  V30 42 1 40 9
M  V30 43 1 41 9
M  V30 44 1 42 11
M  V30 45 1 43 12
M  V30 46 1 44 12
M  V30 47 1 45 12
M  V30 48 1 46 15
M  V30 49 1 47 15
M  V30 50 1 16 48 CFG=1
M  V30 51 1 49 19
M  V30 52 1 50 19
M  V30 53 1 51 19
M  V30 54 1 52 20
M  V30 55 1 53 20
M  V30 56 1 54 21
M  V30 57 1 55 21
M  V30 58 1 22 56 CFG=3
M  V30 59 1 23 57 CFG=3
M  V30 60 1 58 26
M  V30 61 1 59 27
M  V30 62 1 29 60 CFG=3
M  V30 63 1 17 61 CFG=3
M  V30 END BOND
M  V30 END CTAB
M  END
>  <i_epik_Tot_Q>  (1) 
1

>  <i_epik_Tot_abs_Q>  (1) 
1

>  <i_i_glide_confnum>  (1) 
267

>  <i_i_glide_lignum>  (1) 
12

>  <i_i_glide_posenum>  (1) 
198

>  <i_i_glide_rotatable_bonds>  (1) 
8

>  <i_lp_mmshare_version>  (1) 
72125

>  <i_m_source_file_index>  (1) 
9

>  <i_f3d_flags>  (1) 
0

>  <num_sample>  (1) 
100

>  <b_lp_Chiralities_Consistent>  (1) 
1

>  <r_epik_Charging_Adjusted_Penalty>  (1) 
0.26758124344448359

>  <r_epik_Ionization_Penalty>  (1) 
0.27573061112751834

>  <r_epik_Ionization_Penalty_Charging>  (1) 
0.017350130917063531

>  <r_epik_Ionization_Penalty_Neutral>  (1) 
0.25838048021045479

>  <r_epik_State_Penalty>  (1) 
0.25023111252742003

>  <r_glide_ring_energy>  (1) 
0

>  <r_i_docking_score>  (1) 
-4.967336997159479

>  <r_i_glide_ecoul>  (1) 
-9.2914124282930981

>  <r_i_glide_eff_state_penalty>  (1) 
0.25023111252742003

>  <r_i_glide_einternal>  (1) 
13.739176759560854

>  <r_i_glide_emodel>  (1) 
-44.298251035260144

>  <r_i_glide_emodel_strain>  (1) 
0.54844851794764082

>  <r_i_glide_energy>  (1) 
-36.886751476827527

>  <r_i_glide_erotb>  (1) 
0.54307168116637361

>  <r_i_glide_esite>  (1) 
-0.16174310571839629

>  <r_i_glide_evdw>  (1) 
-27.595339048534427

>  <r_i_glide_gscore>  (1) 
-5.2175681096868987

>  <r_i_glide_gscore_strain>  (1) 
0

>  <r_i_glide_hbond>  (1) 
-0.37682111333255519

>  <r_i_glide_ligand_efficiency>  (1) 
-0.17128748266067167

>  <r_i_glide_ligand_efficiency_ln>  (1) 
-1.1373942115514677

>  <r_i_glide_ligand_efficiency_sa>  (1) 
-0.52624941500775457

>  <r_i_glide_lipo>  (1) 
-1.4976852029503245

>  <r_i_glide_metal>  (1) 
-0

>  <r_i_glide_rewards>  (1) 
-0.95091155218130941

>  <r_lp_Energy>  (1) 
41.451684999999998

>  <r_lp_tautomer_probability>  (1) 
1

>  <s_epik_Chemistry_Notes>  (1) 
This compound contains an acetal/aminal-like group ( X-CH(R)-Y where X, Y are N, S, or O) that may be acid/base labile, releasing an aldehyde. This compound has a N-S or N-O group and may undergo hydrolysis at high or low pH.

>  <s_epik_cmdline>  (1) 
J2VwaWtfcHl0aG9uJywgJy1waHQnLCAnMS4wJywgJy1waCcsICc3LjQnLCAnLXRuJywgJzgnLCAnLW1hJywgJzUwMCcsICctaW1hZScsICc8aW5maWxlLm1hZT4nLCAnLW9tYWUnLCAnPG91dGZpbGUubWFlPic=

>  <s_epik_input>  (1) 
Tz1DKFtOSDJdKVtDQEBIXShbTkgyXSlbQ0hdKFtDSDJdMSlbQ0gyXU4xU1tDQEBIXTJbQ0gyXVtDSDJdW0NASF0oTihPW0NIM10pW0NASF0oW0NIM10pW0NIMl1bQ0gzXSlPYyhjMjMpW2NIXWMoRilbY0hdW2NIXTM=

>  <s_glide_docking_method>  (1) 
confgen

>  <s_i_glide_gridfile>  (1) 
gpcr_drd2_6luq_protein_autoprepared_prepared

>  <s_lp_Force_Field>  (1) 
S-OPLS

>  <s_lp_Variant>  (1) 
DiffSBDD_8-2

>  <s_m_source_file>  (1) 
generated_generic_title2_ligand_DiffSBDD_2026-06-23_prepared.sdf

>  <GenAI_Model>  (1) 
DiffSBDD

>  <Protein>  (1) 
generic_title2

$$$$
DiffSBDD_25
     RDKit          3D

  0  0  0  0  0  0  0  0  0  0999 V3000
M  V30 BEGIN CTAB
M  V30 COUNTS 64 67 0 0 1
M  V30 BEGIN ATOM
M  V30 1 C 8.425747 5.319537 -8.317904 0
M  V30 2 C 5.229217 1.611680 -19.946451 0
M  V30 3 C 6.773198 4.123151 -14.861125 0
M  V30 4 C 8.131579 4.684076 -16.897895 0
M  V30 5 N 7.094616 5.098674 -15.941694 0
M  V30 6 C 6.329167 -0.374262 -16.866189 0
M  V30 7 C 5.853027 6.809683 -17.086621 0
M  V30 8 C 6.219410 0.665954 -17.814665 0
M  V30 9 C 7.704266 3.898258 -13.601104 0 CFG=1
M  V30 10 C 8.493808 5.815590 -10.820673 0
M  V30 11 C 6.467787 7.192418 -14.786825 0
M  V30 12 O 5.881053 3.846756 -20.457525 0
M  V30 13 C 7.461195 7.634560 -12.515062 0 CFG=1
M  V30 14 C 6.944374 1.419116 -13.185023 0
M  V30 15 C 6.991388 1.902894 -17.648862 0
M  V30 16 C 5.361023 0.508004 -18.921331 0
M  V30 17 C 7.013013 4.441126 -12.286277 0
M  V30 18 C 6.918181 2.957890 -18.492325 0
M  V30 19 C 9.155278 6.002930 -9.482622 0
M  V30 20 O 7.262869 0.284770 -12.785030 0
M  V30 21 C 7.375409 6.992787 -13.834134 0
M  V30 22 C 8.631053 6.860903 -11.892226 0 CFG=1
M  V30 23 C 5.585627 -1.559735 -17.027678 0
M  V30 24 C 6.014805 2.901543 -19.680650 0
M  V30 25 C 6.478955 6.371364 -15.980578 0
M  V30 26 C 8.092344 2.402389 -13.456559 0
M  V30 27 C 8.588265 8.355274 -11.792119 0
M  V30 28 C 4.732958 -1.711431 -18.133120 0
M  V30 29 C 4.620660 -0.679507 -19.078878 0
M  V30 30 C 7.727144 4.244653 -18.323082 0
M  V30 31 N 7.819954 4.717025 -11.049591 0 CHG=1
M  V30 32 O 5.778918 1.824125 -13.379869 0 CHG=-1
M  V30 33 H 8.848660 5.637709 -7.364793 0
M  V30 34 H 8.496117 4.238580 -8.354328 0
M  V30 35 H 7.375380 5.590219 -8.307763 0
M  V30 36 H 5.539252 1.218519 -20.914511 0
M  V30 37 H 4.175412 1.864939 -20.038037 0
M  V30 38 H 5.775409 4.375276 -14.499017 0
M  V30 39 H 6.615812 3.170554 -15.357895 0
M  V30 40 H 8.735703 3.900598 -16.439689 0
M  V30 41 H 8.812705 5.530748 -16.995187 0
M  V30 42 H 6.982710 -0.262430 -16.012394 0
M  V30 43 H 5.365318 7.773900 -17.102618 0
M  V30 44 H 5.811201 6.214635 -17.980830 0
M  V30 45 H 8.665566 4.382160 -13.759179 0
M  V30 46 H 5.706783 7.948828 -14.659159 0
M  V30 47 H 6.507394 7.622149 -11.989050 0
M  V30 48 H 7.650739 1.949433 -16.796098 0
M  V30 49 H 6.386005 5.307469 -12.460533 0
M  V30 50 H 6.270635 3.723076 -11.944591 0
M  V30 51 H 10.175463 5.644897 -9.543580 0
M  V30 52 H 8.121623 6.259945 -14.030928 0
M  V30 53 H 5.669827 -2.353654 -16.301544 0
M  V30 54 H 8.575397 2.058388 -14.368951 0
M  V30 55 H 8.830015 2.291658 -12.660763 0
M  V30 56 H 9.304759 8.912874 -12.385038 0
M  V30 57 H 8.357570 8.803932 -10.828865 0
M  V30 58 H 4.163618 -2.621093 -18.255020 0
M  V30 59 H 3.965961 -0.796616 -19.928143 0
M  V30 60 H 7.268536 5.078188 -18.845427 0
M  V30 61 H 8.649996 4.074546 -18.877936 0
M  V30 62 H 9.487012 6.553636 -12.493600 0
M  V30 63 H 9.208134 7.071408 -9.272561 0
M  V30 64 H 7.770943 4.020865 -10.313017 0
M  V30 END ATOM
M  V30 BEGIN BOND
M  V30 1 1 5 3
M  V30 2 1 5 4
M  V30 3 2 8 6
M  V30 4 1 9 3
M  V30 5 1 15 8
M  V30 6 1 16 2
M  V30 7 1 16 8
M  V30 8 1 17 9
M  V30 9 2 18 15
M  V30 10 1 19 1
M  V30 11 1 19 10
M  V30 12 2 20 14
M  V30 13 2 21 11
M  V30 14 1 21 13
M  V30 15 1 22 10
M  V30 16 1 22 13
M  V30 17 1 23 6
M  V30 18 1 24 2
M  V30 19 2 24 12
M  V30 20 1 24 18
M  V30 21 1 25 5
M  V30 22 2 25 7
M  V30 23 1 25 11
M  V30 24 1 26 9
M  V30 25 1 26 14
M  V30 26 1 27 13
M  V30 27 1 27 22
M  V30 28 2 28 23
M  V30 29 2 29 16
M  V30 30 1 29 28
M  V30 31 1 30 4
M  V30 32 1 30 18
M  V30 33 2 31 10
M  V30 34 1 31 17
M  V30 35 1 32 14
M  V30 36 1 33 1
M  V30 37 1 34 1
M  V30 38 1 35 1
M  V30 39 1 36 2
M  V30 40 1 37 2
M  V30 41 1 38 3
M  V30 42 1 39 3
M  V30 43 1 40 4
M  V30 44 1 41 4
M  V30 45 1 42 6
M  V30 46 1 43 7
M  V30 47 1 44 7
M  V30 48 1 9 45 CFG=3
M  V30 49 1 46 11
M  V30 50 1 13 47 CFG=1
M  V30 51 1 48 15
M  V30 52 1 49 17
M  V30 53 1 50 17
M  V30 54 1 51 19
M  V30 55 1 52 21
M  V30 56 1 53 23
M  V30 57 1 54 26
M  V30 58 1 55 26
M  V30 59 1 56 27
M  V30 60 1 57 27
M  V30 61 1 58 28
M  V30 62 1 59 29
M  V30 63 1 60 30
M  V30 64 1 61 30
M  V30 65 1 22 62 CFG=3
M  V30 66 1 63 19
M  V30 67 1 64 31
M  V30 END BOND
M  V30 END CTAB
M  END
>  <i_epik_Tot_Q>  (1) 
0

>  <i_epik_Tot_abs_Q>  (1) 
2

>  <i_i_glide_confnum>  (1) 
82

>  <i_i_glide_lignum>  (1) 
44

>  <i_i_glide_posenum>  (1) 
90

>  <i_i_glide_rotatable_bonds>  (1) 
6

>  <i_lp_mmshare_version>  (1) 
72125

>  <i_m_source_file_index>  (1) 
26

>  <i_f3d_flags>  (1) 
0

>  <num_sample>  (1) 
100

>  <b_lp_Chiralities_Consistent>  (1) 
1

>  <r_epik_Charging_Adjusted_Penalty>  (1) 
0.12353365736142194

>  <r_epik_Ionization_Penalty>  (1) 
13.465358995569625

>  <r_epik_Ionization_Penalty_Charging>  (1) 
0.062700894571276394

>  <r_epik_Ionization_Penalty_Neutral>  (1) 
13.402658100998348

>  <r_epik_State_Penalty>  (1) 
0.060832762790145552

>  <r_glide_ring_energy>  (1) 
0

>  <r_i_docking_score>  (1) 
-4.9670945414124716

>  <r_i_glide_ecoul>  (1) 
-2.6446314792832681

>  <r_i_glide_eff_state_penalty>  (1) 
0.060832762790145552

>  <r_i_glide_einternal>  (1) 
3.8368616607623141

>  <r_i_glide_emodel>  (1) 
-40.298509402678924

>  <r_i_glide_emodel_strain>  (1) 
5.6561625646217379

>  <r_i_glide_energy>  (1) 
-37.891723568980801

>  <r_i_glide_erotb>  (1) 
0.42539970400538585

>  <r_i_glide_esite>  (1) 
-0.081124221031243449

>  <r_i_glide_evdw>  (1) 
-35.247092089697531

>  <r_i_glide_gscore>  (1) 
-5.0279273042026169

>  <r_i_glide_gscore_strain>  (1) 
0.41404064115543449

>  <r_i_glide_hbond>  (1) 
0

>  <r_i_glide_ligand_efficiency>  (1) 
-0.15522170441913974

>  <r_i_glide_ligand_efficiency_ln>  (1) 
-1.1122678657057228

>  <r_i_glide_ligand_efficiency_sa>  (1) 
-0.49279819376647876

>  <r_i_glide_lipo>  (1) 
-2.310632657635332

>  <r_i_glide_metal>  (1) 
-0

>  <r_i_glide_rewards>  (1) 
-1.316561444319496

>  <r_lp_Energy>  (1) 
54.374595999999997

>  <s_epik_Chemistry_Notes>  (1) 
This compound has an imine and may undergo hydrolysis.

>  <s_epik_cmdline>  (1) 
J2VwaWtfcHl0aG9uJywgJy1waHQnLCAnMS4wJywgJy1waCcsICc3LjQnLCAnLXRuJywgJzgnLCAnLW1hJywgJzUwMCcsICctaW1hZScsICc8aW5maWxlLm1hZT4nLCAnLW9tYWUnLCAnPG91dGZpbGUubWFlPic=

>  <s_epik_input>  (1) 
W0NIM10vW0NIXT1DKFxbQ0BIXShbQ0BIXTEyKVtDSDJdMilbTkhdW0NIMl1bQ0BASF0oW0NIMl1DKD1PKVtPSF0pW0NIMl1OKEMoPVtDSDJdKS9bQ0hdPVtDSF0vMSlbQ0gyXVtDSDJdQyg9W0NIXTMpQyg9TylbQ0gyXWMoYzM0KVtjSF1bY0hdW2NIXVtjSF00

>  <s_glide_docking_method>  (1) 
confgen

>  <s_i_glide_gridfile>  (1) 
gpcr_drd2_6luq_protein_autoprepared_prepared

>  <s_lp_Force_Field>  (1) 
S-OPLS

>  <s_lp_Variant>  (1) 
DiffSBDD_25-2

>  <s_m_source_file>  (1) 
generated_generic_title2_ligand_DiffSBDD_2026-06-23_prepared.sdf

>  <GenAI_Model>  (1) 
DiffSBDD

>  <Protein>  (1) 
generic_title2

$$$$
DiffSBDD_4
     RDKit          3D

  0  0  0  0  0  0  0  0  0  0999 V3000
M  V30 BEGIN CTAB
M  V30 COUNTS 76 80 0 0 1
M  V30 BEGIN ATOM
M  V30 1 C 8.501500 6.025833 -10.725187 0 CFG=1
M  V30 2 C 7.668151 6.305732 -13.590952 0 CFG=2
M  V30 3 C 8.351887 4.951949 -16.166991 0
M  V30 4 O 5.668206 4.638446 -19.184787 0
M  V30 5 C 8.041229 4.522652 -18.687627 0 CFG=1
M  V30 6 O 8.175402 5.621320 -7.584872 0
M  V30 7 C 8.496609 4.824642 -11.692302 0 CFG=2
M  V30 8 C 12.050687 9.318320 -7.446226 0 CFG=2
M  V30 9 C 6.903074 5.482267 -15.988711 0 CFG=2
M  V30 10 C 9.614607 5.961762 -9.688651 0 CFG=2
M  V30 11 C 10.131861 5.857659 -18.926336 0
M  V30 12 O 12.519411 8.010898 -7.585020 0
M  V30 13 C 4.924447 6.607652 -17.290917 0
M  V30 14 C 8.062242 3.450567 -19.807210 0
M  V30 15 C 12.389820 10.355286 -6.384973 0
M  V30 16 C 6.599480 5.032340 -18.479260 0
M  V30 17 O 10.175433 9.189109 -5.985546 0
M  V30 18 C 8.627742 7.358389 -11.510650 0
M  V30 19 C 10.818744 6.178004 -6.074766 0
M  V30 20 C 9.536184 8.272922 -6.891736 0
M  V30 21 O 11.388016 7.241936 -8.203337 0
M  V30 22 C 11.016813 4.844043 -18.916871 0
M  V30 23 C 11.579929 9.180193 -6.011335 0 CFG=1
M  V30 24 C 8.468851 3.935919 -17.314120 0
M  V30 25 C 9.872340 4.812131 -8.760005 0
M  V30 26 C 6.377706 6.059953 -17.344731 0 CFG=2
M  V30 27 O 9.775388 4.678947 -12.275411 0
M  V30 28 C 4.528521 7.474306 -18.498277 0
M  V30 29 C 6.766015 6.508871 -14.827383 0
M  V30 30 C 10.305512 6.970916 -7.291891 0 CFG=1
M  V30 31 C 7.433206 4.997692 -12.801283 0
M  V30 32 C 9.382756 6.094143 -8.169601 0 CFG=2
M  V30 33 O 8.772559 5.690280 -19.113601 0
M  V30 34 C 7.585296 7.499363 -12.625824 0
M  V30 35 H 7.546030 5.990212 -10.205251 0
M  V30 36 H 8.690497 6.293558 -13.953210 0
M  V30 37 H 9.038437 5.782250 -16.334380 0
M  V30 38 H 8.700234 4.453613 -15.264764 0
M  V30 39 H 7.528693 6.332684 -7.585044 0
M  V30 40 H 8.284337 3.917811 -11.129889 0
M  V30 41 H 11.375417 9.590178 -8.250943 0
M  V30 42 H 6.287936 4.629114 -15.707114 0
M  V30 43 H 10.521744 6.390193 -10.108323 0
M  V30 44 H 10.399111 6.894460 -18.789296 0
M  V30 45 H 4.215997 5.788188 -17.180270 0
M  V30 46 H 4.791311 7.232571 -16.410187 0
M  V30 47 H 7.398167 2.619015 -19.567033 0
M  V30 48 H 7.730025 3.866063 -20.758642 0
M  V30 49 H 9.043687 3.017561 -19.975644 0
M  V30 50 H 13.417871 10.388874 -6.028877 0
M  V30 51 H 11.880365 11.311604 -6.430400 0
M  V30 52 H 8.575385 8.210979 -10.831758 0
M  V30 53 H 9.617185 7.419683 -11.964429 0
M  V30 54 H 9.991904 5.970962 -5.399188 0
M  V30 55 H 11.319213 5.266077 -6.387075 0
M  V30 56 H 11.569792 6.668401 -5.474869 0
M  V30 57 H 9.249858 8.811494 -7.794728 0
M  V30 58 H 8.591640 8.004606 -6.418269 0
M  V30 59 H 12.069060 5.034228 -18.764220 0
M  V30 60 H 10.710690 3.824494 -19.060158 0
M  V30 61 H 12.058730 8.592121 -5.236799 0
M  V30 62 H 9.473273 3.521024 -17.325930 0
M  V30 63 H 7.832811 3.079324 -17.081138 0
M  V30 64 H 10.854291 4.549080 -8.385032 0
M  V30 65 H 9.193747 3.990237 -8.849771 0
M  V30 66 H 7.016186 6.906512 -17.593785 0
M  V30 67 H 9.811562 3.882779 -12.783322 0
M  V30 68 H 3.518673 7.867514 -18.376697 0
M  V30 69 H 5.202419 8.323730 -18.611093 0
M  V30 70 H 4.545192 6.916448 -19.432800 0
M  V30 71 H 5.728680 6.538071 -14.492146 0
M  V30 72 H 6.975188 7.503030 -15.224472 0
M  V30 73 H 6.438980 5.020535 -12.352265 0
M  V30 74 H 7.440511 4.128337 -13.456711 0
M  V30 75 H 6.585441 7.581297 -12.195931 0
M  V30 76 H 7.775406 8.427469 -13.165985 0
M  V30 END ATOM
M  V30 BEGIN BOND
M  V30 1 1 7 1
M  V30 2 1 9 3
M  V30 3 1 10 1
M  V30 4 1 12 8
M  V30 5 1 14 5
M  V30 6 1 15 8
M  V30 7 2 16 4
M  V30 8 1 16 5
M  V30 9 1 18 1
M  V30 10 1 20 17
M  V30 11 1 21 12
M  V30 12 2 22 11
M  V30 13 1 23 8
M  V30 14 1 23 15
M  V30 15 1 23 17
M  V30 16 1 24 3
M  V30 17 1 24 5
M  V30 18 1 25 10
M  V30 19 1 26 9
M  V30 20 1 26 13
M  V30 21 1 26 16
M  V30 22 1 27 7
M  V30 23 1 28 13
M  V30 24 1 29 2
M  V30 25 1 29 9
M  V30 26 1 30 19 CFG=1
M  V30 27 1 30 20
M  V30 28 1 30 21
M  V30 29 1 31 2
M  V30 30 1 31 7
M  V30 31 1 32 6 CFG=3
M  V30 32 1 32 10
M  V30 33 1 32 25
M  V30 34 1 32 30
M  V30 35 1 5 33 CFG=3
M  V30 36 1 33 11
M  V30 37 1 34 2
M  V30 38 1 34 18
M  V30 39 1 1 35 CFG=1
M  V30 40 1 2 36 CFG=3
M  V30 41 1 37 3
M  V30 42 1 38 3
M  V30 43 1 39 6
M  V30 44 1 7 40 CFG=1
M  V30 45 1 8 41 CFG=3
M  V30 46 1 9 42 CFG=1
M  V30 47 1 10 43 CFG=3
M  V30 48 1 44 11
M  V30 49 1 45 13
M  V30 50 1 46 13
M  V30 51 1 47 14
M  V30 52 1 48 14
M  V30 53 1 49 14
M  V30 54 1 50 15
M  V30 55 1 51 15
M  V30 56 1 52 18
M  V30 57 1 53 18
M  V30 58 1 54 19
M  V30 59 1 55 19
M  V30 60 1 56 19
M  V30 61 1 57 20
M  V30 62 1 58 20
M  V30 63 1 59 22
M  V30 64 1 60 22
M  V30 65 1 23 61 CFG=1
M  V30 66 1 62 24
M  V30 67 1 63 24
M  V30 68 1 64 25
M  V30 69 1 65 25
M  V30 70 1 26 66 CFG=3
M  V30 71 1 67 27
M  V30 72 1 68 28
M  V30 73 1 69 28
M  V30 74 1 70 28
M  V30 75 1 71 29
M  V30 76 1 72 29
M  V30 77 1 73 31
M  V30 78 1 74 31
M  V30 79 1 75 34
M  V30 80 1 76 34
M  V30 END BOND
M  V30 END CTAB
M  END
>  <i_epik_Tot_Q>  (1) 
0

>  <i_epik_Tot_abs_Q>  (1) 
0

>  <i_i_glide_confnum>  (1) 
17

>  <i_i_glide_lignum>  (1) 
8

>  <i_i_glide_posenum>  (1) 
150

>  <i_i_glide_rotatable_bonds>  (1) 
9

>  <i_lp_mmshare_version>  (1) 
72125

>  <i_m_source_file_index>  (1) 
5

>  <i_f3d_flags>  (1) 
0

>  <num_sample>  (1) 
100

>  <b_lp_Chiralities_Consistent>  (1) 
1

>  <r_epik_Charging_Adjusted_Penalty>  (1) 
0

>  <r_epik_Ionization_Penalty>  (1) 
6.2478277439111229e-07

>  <r_epik_Ionization_Penalty_Charging>  (1) 
0

>  <r_epik_Ionization_Penalty_Neutral>  (1) 
6.2478277439111229e-07

>  <r_epik_State_Penalty>  (1) 
-0

>  <r_glide_ring_energy>  (1) 
0

>  <r_i_docking_score>  (1) 
-4.9668271701038815

>  <r_i_glide_ecoul>  (1) 
-5.3692544536342384

>  <r_i_glide_eff_state_penalty>  (1) 
-0

>  <r_i_glide_einternal>  (1) 
15.863797531387835

>  <r_i_glide_emodel>  (1) 
-25.559914110072604

>  <r_i_glide_emodel_strain>  (1) 
3.1409748468332737

>  <r_i_glide_energy>  (1) 
-28.878432267630512

>  <r_i_glide_erotb>  (1) 
0.53077912702887098

>  <r_i_glide_esite>  (1) 
0

>  <r_i_glide_evdw>  (1) 
-23.509177813996274

>  <r_i_glide_gscore>  (1) 
-4.9668271701038815

>  <r_i_glide_gscore_strain>  (1) 
0

>  <r_i_glide_hbond>  (1) 
-0.16898246739856593

>  <r_i_glide_ligand_efficiency>  (1) 
-0.14608315206187886

>  <r_i_glide_ligand_efficiency_ln>  (1) 
-1.0973114366591628

>  <r_i_glide_ligand_efficiency_sa>  (1) 
-0.47325270338747599

>  <r_i_glide_lipo>  (1) 
-2.462995678027827

>  <r_i_glide_metal>  (1) 
-0

>  <r_i_glide_rewards>  (1) 
-0.88478109296141083

>  <r_lp_Energy>  (1) 
51.660091999999999

>  <r_lp_tautomer_probability>  (1) 
1

>  <s_epik_cmdline>  (1) 
J2VwaWtfcHl0aG9uJywgJy1waHQnLCAnMS4wJywgJy1waCcsICc3LjQnLCAnLXRuJywgJzgnLCAnLW1hJywgJzUwMCcsICctaW1hZScsICc8aW5maWxlLm1hZT4nLCAnLW9tYWUnLCAnPG91dGZpbGUubWFlPic=

>  <s_epik_input>  (1) 
W0NAQEhdMTJbQ0BASF0oW0NIMl0yKU9bQ0gyXVtDQF0oW0NIM10pKE9PMSlbQ0BAXTMoW09IXSlbQ0BASF0oW0NIMl0zKVtDQEBIXTRbQ0BIXShbT0hdKVtDSDJdW0NASF0oW0NIMl1bQ0gyXTQpW0NIMl1bQ0BIXShbQ0gyXVtDSDJdNSlbQ0BIXShbQ0gyXVtDSDNdKUMoPU8pW0NAQF01KFtDSDNdKU9bQ0hdPVtDSDJd

>  <s_glide_docking_method>  (1) 
confgen

>  <s_i_glide_gridfile>  (1) 
gpcr_drd2_6luq_protein_autoprepared_prepared

>  <s_lp_Force_Field>  (1) 
S-OPLS

>  <s_lp_Variant>  (1) 
DiffSBDD_4-1

>  <s_m_source_file>  (1) 
generated_generic_title2_ligand_DiffSBDD_2026-06-23_prepared.sdf

>  <GenAI_Model>  (1) 
DiffSBDD

>  <Protein>  (1) 
generic_title2

$$$$
DiffSBDD_23
     RDKit          3D

  0  0  0  0  0  0  0  0  0  0999 V3000
M  V30 BEGIN CTAB
M  V30 COUNTS 69 71 0 0 1
M  V30 BEGIN ATOM
M  V30 1 O 10.847452 1.822262 -18.834273 0
M  V30 2 C 14.954921 -0.194551 -18.542173 0 CFG=2
M  V30 3 C 10.882342 8.390074 -9.441566 0
M  V30 4 C 7.476533 6.726155 -12.068101 0 CFG=1
M  V30 5 C 8.784752 5.977169 -12.364345 0 CFG=1
M  V30 6 C 5.879910 6.381821 -15.618225 0
M  V30 7 F 15.385689 0.789178 -17.714330 0
M  V30 8 C 9.542615 5.994835 -8.806468 0
M  V30 9 C 11.668351 3.999841 -18.491222 0
M  V30 10 C 10.442427 7.537849 -10.473958 0
M  V30 11 C 12.507490 0.176550 -17.960256 0
M  V30 12 C 5.570584 4.774020 -13.730622 0
M  V30 13 O 9.352678 5.469780 -11.153258 0
M  V30 14 F 13.606759 1.345604 -19.688530 0
M  V30 15 O 15.881871 -0.409764 -19.583644 0
M  V30 16 F 9.470896 5.630213 -17.169285 0
M  V30 17 C 6.707352 7.030904 -13.360607 0 CFG=2
M  V30 18 C 13.558063 0.156843 -19.085547 0 CFG=1
M  V30 19 C 8.693275 2.174326 -16.619749 0
M  V30 20 N 7.886983 5.260806 -14.585485 0
M  V30 21 F 10.421400 4.459855 -15.614577 0
M  V30 22 C 10.650874 8.046926 -8.095131 0
M  V30 23 C 8.042031 4.373987 -15.762349 0 CFG=2
M  V30 24 C 10.893107 2.846006 -17.839215 0 CFG=1
M  V30 25 C 9.464091 3.262638 -17.392960 0 CFG=2
M  V30 26 C 6.535148 5.826774 -14.326192 0
M  V30 27 C 9.980755 6.850667 -7.778258 0
M  V30 28 C 9.771105 6.333539 -10.157624 0
M  V30 29 O 8.895958 4.836300 -8.497832 0
M  V30 30 F 7.375410 7.990197 -13.998091 0
M  V30 31 C 7.838899 2.866374 -15.545565 0
M  V30 32 O 6.654837 5.990229 -11.185030 0
M  V30 33 C 8.563370 4.810537 -13.349395 0
M  V30 34 C 9.403786 4.496978 -16.470673 0
M  V30 35 C 11.062250 0.479547 -18.405577 0
M  V30 36 H 14.897560 -1.122228 -17.974031 0
M  V30 37 H 11.398769 9.307101 -9.682416 0
M  V30 38 H 7.707596 7.674631 -11.585023 0
M  V30 39 H 9.484596 6.656417 -12.844886 0
M  V30 40 H 5.028190 7.020311 -15.382545 0
M  V30 41 H 6.575263 6.985110 -16.203333 0
M  V30 42 H 5.492874 5.591062 -16.260383 0
M  V30 43 H 11.834825 4.818866 -17.791687 0
M  V30 44 H 12.649188 3.666561 -18.830691 0
M  V30 45 H 11.134182 4.397399 -19.354540 0
M  V30 46 H 10.626665 7.803860 -11.501182 0
M  V30 47 H 12.824828 0.863618 -17.178477 0
M  V30 48 H 12.503068 -0.807508 -17.491595 0
M  V30 49 H 4.575644 5.191016 -13.585036 0
M  V30 50 H 5.462691 3.927884 -14.385025 0
M  V30 51 H 5.884960 4.350837 -12.781462 0
M  V30 52 H 16.175417 -1.311215 -19.512274 0
M  V30 53 H 5.738605 7.467342 -13.111692 0
M  V30 54 H 13.269607 -0.560706 -19.853441 0
M  V30 55 H 9.375384 1.492124 -16.122749 0
M  V30 56 H 8.084150 1.575973 -17.298602 0
M  V30 57 H 10.987560 8.701917 -7.304917 0
M  V30 58 H 7.337443 4.656942 -16.538037 0
M  V30 59 H 11.459956 2.525925 -16.967046 0
M  V30 60 H 8.883215 3.500758 -18.285575 0
M  V30 61 H 9.803159 6.588143 -6.745565 0
M  V30 62 H 8.508613 4.462387 -9.276213 0
M  V30 63 H 8.175414 2.536759 -14.564302 0
M  V30 64 H 6.791219 2.583085 -15.636855 0
M  V30 65 H 6.575761 6.542857 -10.401891 0
M  V30 66 H 9.537524 4.380047 -13.565044 0
M  V30 67 H 7.999214 4.015935 -12.863499 0
M  V30 68 H 10.371611 0.224588 -17.604828 0
M  V30 69 H 10.800788 -0.177100 -19.235832 0
M  V30 END ATOM
M  V30 BEGIN BOND
M  V30 1 1 5 4
M  V30 2 1 7 2
M  V30 3 1 10 3
M  V30 4 1 13 5
M  V30 5 1 15 2
M  V30 6 1 17 4
M  V30 7 1 18 2
M  V30 8 1 18 11
M  V30 9 1 18 14
M  V30 10 2 22 3
M  V30 11 1 23 20
M  V30 12 1 24 1
M  V30 13 1 24 9
M  V30 14 1 25 19
M  V30 15 1 25 24
M  V30 16 1 26 6
M  V30 17 1 26 12
M  V30 18 1 26 17
M  V30 19 1 26 20
M  V30 20 2 27 8
M  V30 21 1 27 22
M  V30 22 1 28 8
M  V30 23 2 28 10
M  V30 24 1 28 13
M  V30 25 1 29 8
M  V30 26 1 30 17
M  V30 27 1 31 19
M  V30 28 1 31 23
M  V30 29 1 32 4
M  V30 30 1 33 5
M  V30 31 1 33 20
M  V30 32 1 34 16
M  V30 33 1 34 21
M  V30 34 1 34 23
M  V30 35 1 34 25
M  V30 36 1 35 1
M  V30 37 1 35 11
M  V30 38 1 2 36 CFG=1
M  V30 39 1 37 3
M  V30 40 1 4 38 CFG=1
M  V30 41 1 5 39 CFG=3
M  V30 42 1 40 6
M  V30 43 1 41 6
M  V30 44 1 42 6
M  V30 45 1 43 9
M  V30 46 1 44 9
M  V30 47 1 45 9
M  V30 48 1 46 10
M  V30 49 1 47 11
M  V30 50 1 48 11
M  V30 51 1 49 12
M  V30 52 1 50 12
M  V30 53 1 51 12
M  V30 54 1 52 15
M  V30 55 1 17 53 CFG=1
M  V30 56 1 18 54 CFG=3
M  V30 57 1 55 19
M  V30 58 1 56 19
M  V30 59 1 57 22
M  V30 60 1 23 58 CFG=3
M  V30 61 1 24 59 CFG=1
M  V30 62 1 25 60 CFG=3
M  V30 63 1 61 27
M  V30 64 1 62 29
M  V30 65 1 63 31
M  V30 66 1 64 31
M  V30 67 1 65 32
M  V30 68 1 66 33
M  V30 69 1 67 33
M  V30 70 1 68 35
M  V30 71 1 69 35
M  V30 END BOND
M  V30 END CTAB
M  END
>  <i_epik_Tot_Q>  (1) 
0

>  <i_epik_Tot_abs_Q>  (1) 
0

>  <i_i_glide_confnum>  (1) 
1507

>  <i_i_glide_lignum>  (1) 
41

>  <i_i_glide_posenum>  (1) 
321

>  <i_i_glide_rotatable_bonds>  (1) 
12

>  <i_lp_mmshare_version>  (1) 
72125

>  <i_m_source_file_index>  (1) 
24

>  <i_f3d_flags>  (1) 
0

>  <num_sample>  (1) 
100

>  <b_lp_Chiralities_Consistent>  (1) 
1

>  <r_epik_Charging_Adjusted_Penalty>  (1) 
0.0080743036446832648

>  <r_epik_Ionization_Penalty>  (1) 
0.010611315271180252

>  <r_epik_Ionization_Penalty_Charging>  (1) 
0

>  <r_epik_Ionization_Penalty_Neutral>  (1) 
0.010611315271180252

>  <r_epik_State_Penalty>  (1) 
0.0080743036446832648

>  <r_glide_ring_energy>  (1) 
0

>  <r_i_docking_score>  (1) 
-4.9643118077451707

>  <r_i_glide_ecoul>  (1) 
-8.5096382392267174

>  <r_i_glide_eff_state_penalty>  (1) 
0.0080743036446832648

>  <r_i_glide_einternal>  (1) 
18.212728421917355

>  <r_i_glide_emodel>  (1) 
-39.410613536216033

>  <r_i_glide_emodel_strain>  (1) 
1.5455835893769034

>  <r_i_glide_energy>  (1) 
-40.420803960175661

>  <r_i_glide_erotb>  (1) 
0.70487652011910051

>  <r_i_glide_esite>  (1) 
-0.012449235779237048

>  <r_i_glide_evdw>  (1) 
-31.911165720948944

>  <r_i_glide_gscore>  (1) 
-4.972386111389854

>  <r_i_glide_gscore_strain>  (1) 
0

>  <r_i_glide_hbond>  (1) 
-0.45599999999999996

>  <r_i_glide_ligand_efficiency>  (1) 
-0.14183748022129058

>  <r_i_glide_ligand_efficiency_ln>  (1) 
-1.0897766187644602

>  <r_i_glide_ligand_efficiency_sa>  (1) 
-0.46395980307390416

>  <r_i_glide_lipo>  (1) 
-1.6226212423271458

>  <r_i_glide_metal>  (1) 
-0

>  <r_i_glide_rewards>  (1) 
-0.71418813147111737

>  <r_lp_Energy>  (1) 
44.015346999999998

>  <r_lp_tautomer_probability>  (1) 
1

>  <s_epik_cmdline>  (1) 
J2VwaWtfcHl0aG9uJywgJy1waHQnLCAnMS4wJywgJy1waCcsICc3LjQnLCAnLXRuJywgJzgnLCAnLW1hJywgJzUwMCcsICctaW1hZScsICc8aW5maWxlLm1hZT4nLCAnLW9tYWUnLCAnPG91dGZpbGUubWFlPic=

>  <s_epik_input>  (1) 
RltDQEhdKFtPSF0pW0NASF0oRilbQ0gyXVtDSDJdT1tDQEBIXShbQ0gzXSlbQ0BIXTFbQ0gyXVtDSDJdW0NASF0oQzEoRilGKU4yW0NIMl1bQ0BASF0oW0NASF0oW09IXSlbQ0BASF0oRilDMihbQ0gzXSlbQ0gzXSlPW0NAQEhdM1tDSF09W0NIXVtDSF09W0NIXUMzPU8=

>  <s_glide_docking_method>  (1) 
confgen

>  <s_i_glide_gridfile>  (1) 
gpcr_drd2_6luq_protein_autoprepared_prepared

>  <s_lp_Force_Field>  (1) 
S-OPLS

>  <s_lp_Variant>  (1) 
DiffSBDD_23-1

>  <s_m_source_file>  (1) 
generated_generic_title2_ligand_DiffSBDD_2026-06-23_prepared.sdf

>  <GenAI_Model>  (1) 
DiffSBDD

>  <Protein>  (1) 
generic_title2

$$$$
DiffSBDD_78
     RDKit          3D

  0  0  0  0  0  0  0  0  0  0999 V3000
M  V30 BEGIN CTAB
M  V30 COUNTS 80 84 0 0 1
M  V30 BEGIN ATOM
M  V30 1 C 11.150339 8.771592 -6.161163 0 CFG=2
M  V30 2 C 12.279465 9.589023 -6.780808 0
M  V30 3 C 6.946682 6.279958 -14.428855 0 CFG=1
M  V30 4 C 6.325055 3.703022 -13.689636 0 CFG=2
M  V30 5 C 11.497727 8.257545 -4.753057 0
M  V30 6 N 7.180664 1.390032 -13.590577 0
M  V30 7 C 5.352291 4.797576 -13.229869 0 CFG=1
M  V30 8 C 7.250407 5.967868 -11.955580 0 CFG=1
M  V30 9 N 10.813244 7.582200 -6.975744 0 CFG=1 CHG=1
M  V30 10 C 10.262162 6.601785 -6.024583 0
M  V30 11 N 8.087337 5.721215 -10.743657 0 CFG=1 CHG=1
M  V30 12 C 9.345457 5.783948 -13.504687 0
M  V30 13 C 6.173777 2.312078 -13.067504 0
M  V30 14 C 7.833692 -0.090956 -15.393426 0
M  V30 15 O 7.660643 4.170121 -13.495354 0
M  V30 16 C 8.440661 4.326253 -10.476396 0
M  V30 17 C 8.002689 -0.270805 -16.919581 0 CFG=1
M  V30 18 C 5.829310 7.289084 -14.165148 0
M  V30 19 C 7.829714 5.584165 -13.354753 0 CFG=2
M  V30 20 F 6.790229 -0.476173 -17.437493 0
M  V30 21 C 11.100699 6.772415 -4.758664 0
M  V30 22 C 9.907049 5.428400 -14.898364 0
M  V30 23 O 7.961962 2.253113 -15.639380 0
M  V30 24 C 5.817293 5.348790 -11.845326 0
M  V30 25 C 8.571476 0.996686 -17.589870 0 CFG=1
M  V30 26 C 9.552244 6.557448 -8.895182 0
M  V30 27 C 7.197526 1.247753 -15.049236 0 CFG=2
M  V30 28 C 9.986417 7.851644 -8.189092 0
M  V30 29 C 9.151998 6.703509 -10.386240 0
M  V30 30 C 8.859858 -1.504931 -17.258442 0
M  V30 31 C 7.887885 2.261511 -17.058178 0
M  V30 32 C 5.492759 5.841925 -14.333434 0 CFG=1
M  V30 33 F 9.885281 1.110009 -17.392655 0
M  V30 34 H 10.253962 9.389905 -6.091575 0
M  V30 35 H 12.260869 10.607563 -6.389438 0
M  V30 36 H 13.270096 9.190259 -6.570227 0
M  V30 37 H 12.175355 9.590239 -7.864013 0
M  V30 38 H 7.340355 6.249737 -15.440357 0
M  V30 39 H 6.175539 3.592967 -14.763206 0
M  V30 40 H 10.975471 8.839369 -3.998199 0
M  V30 41 H 12.553601 8.380910 -4.507699 0
M  V30 42 H 8.098662 1.715344 -13.301850 0
M  V30 43 H 4.341770 4.390039 -13.206890 0
M  V30 44 H 7.147101 7.051127 -11.929117 0
M  V30 45 H 9.213870 6.832713 -5.837489 0
M  V30 46 H 10.321888 5.590319 -6.417045 0
M  V30 47 H 9.602398 6.790439 -13.184917 0
M  V30 48 H 9.858885 5.132535 -12.797436 0
M  V30 49 H 5.181950 1.917340 -13.285123 0
M  V30 50 H 6.247036 2.365163 -11.984864 0
M  V30 51 H 8.761720 -0.207984 -14.844258 0
M  V30 52 H 7.138085 -0.811049 -14.986950 0
M  V30 53 H 8.454800 3.684711 -11.351866 0
M  V30 54 H 9.404437 4.203931 -9.986280 0
M  V30 55 H 7.663014 3.990241 -9.796176 0
M  V30 56 H 5.593360 7.680859 -13.182336 0
M  V30 57 H 5.558546 7.952043 -14.985318 0
M  V30 58 H 10.576233 6.435445 -3.863188 0
M  V30 59 H 11.997821 6.158592 -4.843824 0
M  V30 60 H 10.982398 5.590292 -14.939747 0
M  V30 61 H 9.727222 4.389414 -15.133826 0
M  V30 62 H 9.463744 5.990190 -15.714059 0
M  V30 63 H 5.117122 6.097688 -11.471667 0
M  V30 64 H 5.788211 4.539405 -11.116285 0
M  V30 65 H 8.447533 0.937018 -18.671581 0
M  V30 66 H 8.714431 6.145689 -8.327185 0
M  V30 67 H 10.359068 5.826618 -8.825862 0
M  V30 68 H 6.176871 1.282473 -15.435432 0
M  V30 69 H 10.562779 8.460666 -8.885198 0
M  V30 70 H 9.100806 8.433354 -7.925336 0
M  V30 71 H 10.039671 6.563848 -10.999405 0
M  V30 72 H 8.809556 7.717718 -10.589225 0
M  V30 73 H 9.882735 -1.394914 -16.896653 0
M  V30 74 H 8.462558 -2.412244 -16.809122 0
M  V30 75 H 8.906934 -1.663402 -18.335310 0
M  V30 76 H 6.847288 2.311185 -17.382750 0
M  V30 77 H 8.377364 3.158101 -17.439543 0
M  V30 78 H 4.999721 5.590404 -15.269727 0
M  V30 79 H 11.689865 7.193321 -7.289677 0
M  V30 80 H 7.415699 5.946433 -10.015775 0
M  V30 END ATOM
M  V30 BEGIN BOND
M  V30 1 1 2 1
M  V30 2 1 5 1
M  V30 3 1 7 4
M  V30 4 1 9 1
M  V30 5 1 10 9
M  V30 6 1 11 8
M  V30 7 1 13 4
M  V30 8 1 13 6
M  V30 9 1 15 4
M  V30 10 1 16 11
M  V30 11 1 17 14
M  V30 12 1 18 3
M  V30 13 1 19 3
M  V30 14 1 19 8
M  V30 15 1 19 12 CFG=1
M  V30 16 1 19 15
M  V30 17 1 17 20 CFG=3
M  V30 18 1 21 5
M  V30 19 1 21 10
M  V30 20 1 22 12
M  V30 21 1 24 7
M  V30 22 1 24 8
M  V30 23 1 25 17
M  V30 24 1 27 6
M  V30 25 1 27 14
M  V30 26 1 27 23
M  V30 27 1 28 9
M  V30 28 1 28 26
M  V30 29 1 29 11
M  V30 30 1 29 26
M  V30 31 1 30 17
M  V30 32 1 31 23
M  V30 33 1 31 25
M  V30 34 1 32 3
M  V30 35 1 32 7
M  V30 36 1 32 18
M  V30 37 1 33 25
M  V30 38 1 1 34 CFG=1
M  V30 39 1 35 2
M  V30 40 1 36 2
M  V30 41 1 37 2
M  V30 42 1 3 38 CFG=3
M  V30 43 1 4 39 CFG=3
M  V30 44 1 40 5
M  V30 45 1 41 5
M  V30 46 1 42 6
M  V30 47 1 7 43 CFG=1
M  V30 48 1 8 44 CFG=3
M  V30 49 1 45 10
M  V30 50 1 46 10
M  V30 51 1 47 12
M  V30 52 1 48 12
M  V30 53 1 49 13
M  V30 54 1 50 13
M  V30 55 1 51 14
M  V30 56 1 52 14
M  V30 57 1 53 16
M  V30 58 1 54 16
M  V30 59 1 55 16
M  V30 60 1 56 18
M  V30 61 1 57 18
M  V30 62 1 58 21
M  V30 63 1 59 21
M  V30 64 1 60 22
M  V30 65 1 61 22
M  V30 66 1 62 22
M  V30 67 1 63 24
M  V30 68 1 64 24
M  V30 69 1 25 65 CFG=3
M  V30 70 1 66 26
M  V30 71 1 67 26
M  V30 72 1 27 68 CFG=3
M  V30 73 1 69 28
M  V30 74 1 70 28
M  V30 75 1 71 29
M  V30 76 1 72 29
M  V30 77 1 73 30
M  V30 78 1 74 30
M  V30 79 1 75 30
M  V30 80 1 76 31
M  V30 81 1 77 31
M  V30 82 1 32 78 CFG=3
M  V30 83 1 9 79 CFG=3
M  V30 84 1 11 80 CFG=1
M  V30 END BOND
M  V30 END CTAB
M  END
>  <i_epik_Tot_Q>  (1) 
2

>  <i_epik_Tot_abs_Q>  (1) 
2

>  <i_i_glide_confnum>  (1) 
1182

>  <i_i_glide_lignum>  (1) 
132

>  <i_i_glide_posenum>  (1) 
266

>  <i_i_glide_rotatable_bonds>  (1) 
9

>  <i_lp_mmshare_version>  (1) 
72125

>  <i_m_source_file_index>  (1) 
79

>  <i_f3d_flags>  (1) 
0

>  <num_sample>  (1) 
100

>  <b_lp_Chiralities_Consistent>  (1) 
1

>  <r_epik_Charging_Adjusted_Penalty>  (1) 
0.22182564166484353

>  <r_epik_Ionization_Penalty>  (1) 
0.22182564166592098

>  <r_epik_Ionization_Penalty_Charging>  (1) 
0.060182310347739972

>  <r_epik_Ionization_Penalty_Neutral>  (1) 
0.16164333131818101

>  <r_epik_State_Penalty>  (1) 
0.16164333131710357

>  <r_glide_ring_energy>  (1) 
0

>  <r_i_docking_score>  (1) 
-4.9619593226446783

>  <r_i_glide_ecoul>  (1) 
-4.7018088719580371

>  <r_i_glide_eff_state_penalty>  (1) 
0.16164333131710357

>  <r_i_glide_einternal>  (1) 
4.5090664364470339

>  <r_i_glide_emodel>  (1) 
-37.338930214671969

>  <r_i_glide_emodel_strain>  (1) 
4.9886233572015044

>  <r_i_glide_energy>  (1) 
-31.967766845818872

>  <r_i_glide_erotb>  (1) 
0.726867567680611

>  <r_i_glide_esite>  (1) 
-0.089687989401022419

>  <r_i_glide_evdw>  (1) 
-27.265957973860836

>  <r_i_glide_gscore>  (1) 
-5.1236026539617816

>  <r_i_glide_gscore_strain>  (1) 
0.2471558393003761

>  <r_i_glide_hbond>  (1) 
-0.10100740354046583

>  <r_i_glide_ligand_efficiency>  (1) 
-0.15036240371650542

>  <r_i_glide_ligand_efficiency_ln>  (1) 
-1.1035140617057912

>  <r_i_glide_ligand_efficiency_sa>  (1) 
-0.48229257186138319

>  <r_i_glide_lipo>  (1) 
-2.4264921172448379

>  <r_i_glide_metal>  (1) 
-0

>  <r_i_glide_rewards>  (1) 
-1.4118693212696942

>  <r_lp_Energy>  (1) 
69.690649999999991

>  <s_epik_Chemistry_Notes>  (1) 
This compound contains an acetal/aminal-like group ( X-CH(R)-Y where X, Y are N, S, or O) that may be acid/base labile, releasing an aldehyde.

>  <s_epik_cmdline>  (1) 
J2VwaWtfcHl0aG9uJywgJy1waHQnLCAnMS4wJywgJy1waCcsICc3LjQnLCAnLXRuJywgJzgnLCAnLW1hJywgJzUwMCcsICctaW1hZScsICc8aW5maWxlLm1hZT4nLCAnLW9tYWUnLCAnPG91dGZpbGUubWFlPic=

>  <s_epik_input>  (1) 
W0NIM11bQ0BASF0xW0NIMl1bQ0gyXVtDSDJdTjFbQ0gyXVtDSDJdW0NIMl1OKFtDSDNdKVtDQEBIXTJbQ0gyXVtDQEBIXShbQ0BASF0oW0NIMl0zKVtDQEBIXTNbQ0BAXTI0W0NIMl1bQ0gzXSlbQ0BASF0oTzQpW0NIMl1bTkhdW0NASF0oW0NIMl1bQ0BdNShGKVtDSDNdKU9bQ0gyXVtDQEhdNUY=

>  <s_glide_docking_method>  (1) 
confgen

>  <s_i_glide_gridfile>  (1) 
gpcr_drd2_6luq_protein_autoprepared_prepared

>  <s_lp_Force_Field>  (1) 
S-OPLS

>  <s_lp_Variant>  (1) 
DiffSBDD_78-4

>  <s_m_source_file>  (1) 
generated_generic_title2_ligand_DiffSBDD_2026-06-23_prepared.sdf

>  <GenAI_Model>  (1) 
DiffSBDD

>  <Protein>  (1) 
generic_title2

$$$$
DiffSBDD_83
     RDKit          3D

  0  0  0  0  0  0  0  0  0  0999 V3000
M  V30 BEGIN CTAB
M  V30 COUNTS 46 48 0 0 1
M  V30 BEGIN ATOM
M  V30 1 C 5.375537 4.587593 -13.131829 0
M  V30 2 C 12.418962 9.126250 -4.234327 0
M  V30 3 C 11.375413 6.932123 -4.384449 0
M  V30 4 C 9.146223 6.687235 -7.358218 0
M  V30 5 F 12.028429 10.735985 -5.965061 0
M  V30 6 C 12.197000 7.844572 -3.701468 0
M  V30 7 C 10.980628 8.592959 -6.132068 0
M  V30 8 C 7.269919 5.605047 -12.306750 0 CFG=1
M  V30 9 C 11.811248 9.501919 -5.450228 0
M  V30 10 N 6.051830 4.973649 -14.124025 0 CHG=1
M  V30 11 N 9.149930 4.870157 -10.700990 0 CFG=1 CHG=1
M  V30 12 C 5.874732 5.011427 -11.814250 0 CFG=2
M  V30 13 C 10.757209 7.300281 -5.593964 0
M  V30 14 C 5.911512 3.822439 -10.843375 0
M  V30 15 C 9.865941 5.181277 -11.928354 0
M  V30 16 O 9.943038 6.390038 -6.224638 0
M  V30 17 C 9.757012 5.962135 -8.560572 0
M  V30 18 F 13.223203 9.990220 -3.585095 0
M  V30 19 C 6.976698 7.218105 -14.337356 0
M  V30 20 C 8.834471 5.987437 -9.783115 0
M  V30 21 C 8.445853 4.687175 -11.965325 0 CFG=2
M  V30 22 C 7.210107 5.776053 -13.879648 0 CFG=1
M  V30 23 H 4.487819 3.983441 -13.282803 0
M  V30 24 H 11.207940 5.947863 -3.973840 0
M  V30 25 H 8.942089 7.736506 -7.553587 0
M  V30 26 H 8.175425 6.243893 -7.142399 0
M  V30 27 H 12.664770 7.558011 -2.770773 0
M  V30 28 H 10.524211 8.889015 -7.060623 0
M  V30 29 H 7.418925 6.588213 -11.861230 0
M  V30 30 H 4.949689 3.647420 -10.384849 0
M  V30 31 H 6.175394 2.898132 -11.355152 0
M  V30 32 H 6.594248 3.990008 -10.012396 0
M  V30 33 H 10.687307 4.477819 -11.985157 0
M  V30 34 H 10.090964 6.242287 -12.022064 0
M  V30 35 H 9.939813 4.927530 -8.266735 0
M  V30 36 H 10.729089 6.389320 -8.807865 0
M  V30 37 H 7.774632 7.876142 -13.993624 0
M  V30 38 H 6.928726 7.288068 -15.424082 0
M  V30 39 H 6.033451 7.590299 -13.938494 0
M  V30 40 H 8.910011 6.961418 -10.267165 0
M  V30 41 H 7.804850 5.854553 -9.454270 0
M  V30 42 H 8.322648 3.630091 -12.194987 0
M  V30 43 H 8.054663 5.312389 -14.391303 0
M  V30 44 H 9.420756 3.994003 -10.275280 0
M  V30 45 H 5.237047 5.806935 -11.424685 0
M  V30 46 H 5.792220 4.732118 -15.077487 0
M  V30 END ATOM
M  V30 BEGIN BOND
M  V30 1 1 6 2
M  V30 2 2 6 3
M  V30 3 2 9 2
M  V30 4 1 9 5
M  V30 5 1 9 7
M  V30 6 2 10 1
M  V30 7 1 12 1
M  V30 8 1 12 8
M  V30 9 1 13 3
M  V30 10 2 13 7
M  V30 11 1 14 12
M  V30 12 1 15 11
M  V30 13 1 16 4
M  V30 14 1 16 13
M  V30 15 1 17 4
M  V30 16 1 18 2
M  V30 17 1 20 11
M  V30 18 1 20 17
M  V30 19 1 21 8
M  V30 20 1 21 11
M  V30 21 1 21 15
M  V30 22 1 22 8
M  V30 23 1 22 10
M  V30 24 1 22 19
M  V30 25 1 23 1
M  V30 26 1 24 3
M  V30 27 1 25 4
M  V30 28 1 26 4
M  V30 29 1 27 6
M  V30 30 1 28 7
M  V30 31 1 8 29 CFG=1
M  V30 32 1 30 14
M  V30 33 1 31 14
M  V30 34 1 32 14
M  V30 35 1 33 15
M  V30 36 1 34 15
M  V30 37 1 35 17
M  V30 38 1 36 17
M  V30 39 1 37 19
M  V30 40 1 38 19
M  V30 41 1 39 19
M  V30 42 1 40 20
M  V30 43 1 41 20
M  V30 44 1 21 42 CFG=3
M  V30 45 1 22 43 CFG=3
M  V30 46 1 11 44 CFG=1
M  V30 47 1 12 45 CFG=1
M  V30 48 1 46 10
M  V30 END BOND
M  V30 END CTAB
M  END
>  <i_epik_Tot_Q>  (1) 
2

>  <i_epik_Tot_abs_Q>  (1) 
2

>  <i_i_glide_confnum>  (1) 
17

>  <i_i_glide_lignum>  (1) 
149

>  <i_i_glide_posenum>  (1) 
100

>  <i_i_glide_rotatable_bonds>  (1) 
6

>  <i_lp_mmshare_version>  (1) 
72125

>  <i_m_source_file_index>  (1) 
84

>  <i_f3d_flags>  (1) 
0

>  <num_sample>  (1) 
100

>  <b_lp_Chiralities_Consistent>  (1) 
1

>  <r_epik_Charging_Adjusted_Penalty>  (1) 
1.5610925274032894

>  <r_epik_Ionization_Penalty>  (1) 
5.6947270193771686

>  <r_epik_Ionization_Penalty_Charging>  (1) 
0.86989266313289404

>  <r_epik_Ionization_Penalty_Neutral>  (1) 
4.824834356244275

>  <r_epik_State_Penalty>  (1) 
0.69119986427039537

>  <r_glide_ring_energy>  (1) 
0

>  <r_i_docking_score>  (1) 
-4.9603179442789642

>  <r_i_glide_ecoul>  (1) 
-6.2451109243285243

>  <r_i_glide_eff_state_penalty>  (1) 
0.69119986427039537

>  <r_i_glide_einternal>  (1) 
1.5973627607179335

>  <r_i_glide_emodel>  (1) 
-48.873630775956187

>  <r_i_glide_emodel_strain>  (1) 
2.5952205569865541

>  <r_i_glide_energy>  (1) 
-33.995364521085399

>  <r_i_glide_erotb>  (1) 
0.96167990521069524

>  <r_i_glide_esite>  (1) 
0

>  <r_i_glide_evdw>  (1) 
-27.750253596756874

>  <r_i_glide_gscore>  (1) 
-5.6515178085493591

>  <r_i_glide_gscore_strain>  (1) 
0

>  <r_i_glide_hbond>  (1) 
0

>  <r_i_glide_ligand_efficiency>  (1) 
-0.22546899746722565

>  <r_i_glide_ligand_efficiency_ln>  (1) 
-1.2124826375749449

>  <r_i_glide_ligand_efficiency_sa>  (1) 
-0.6317729987466062

>  <r_i_glide_lipo>  (1) 
-2.2018607040098996

>  <r_i_glide_metal>  (1) 
-0

>  <r_i_glide_rewards>  (1) 
-2.0870576912630323

>  <r_lp_Energy>  (1) 
41.591741999999996

>  <r_lp_tautomer_probability>  (1) 
1

>  <s_epik_Chemistry_Notes>  (1) 
This compound has an imine and may undergo hydrolysis.

>  <s_epik_cmdline>  (1) 
J2VwaWtfcHl0aG9uJywgJy1waHQnLCAnMS4wJywgJy1waCcsICc3LjQnLCAnLXRuJywgJzgnLCAnLW1hJywgJzUwMCcsICctaW1hZScsICc8aW5maWxlLm1hZT4nLCAnLW9tYWUnLCAnPG91dGZpbGUubWFlPic=

>  <s_epik_input>  (1) 
W0NIM11bQ0BASF0xTj1bQ0hdW0NAQEhdKFtDSDNdKVtDQEhdMVtDQEhdMltDSDJdTjJbQ0gyXVtDSDJdW0NIMl1PYyhbY0hdYzNGKVtjSF1bY0hdYzNG

>  <s_glide_docking_method>  (1) 
confgen

>  <s_i_glide_gridfile>  (1) 
gpcr_drd2_6luq_protein_autoprepared_prepared

>  <s_lp_Force_Field>  (1) 
S-OPLS

>  <s_lp_Variant>  (1) 
DiffSBDD_83-3

>  <s_m_source_file>  (1) 
generated_generic_title2_ligand_DiffSBDD_2026-06-23_prepared.sdf

>  <GenAI_Model>  (1) 
DiffSBDD

>  <Protein>  (1) 
generic_title2

$$$$
DiffSBDD_83
     RDKit          3D

  0  0  0  0  0  0  0  0  0  0999 V3000
M  V30 BEGIN CTAB
M  V30 COUNTS 46 48 0 0 1
M  V30 BEGIN ATOM
M  V30 1 C 6.270334 6.338140 -14.761450 0
M  V30 2 C 11.416886 7.440938 -4.563800 0
M  V30 3 C 11.175767 7.145031 -6.969701 0
M  V30 4 C 11.299197 8.263448 -9.594550 0
M  V30 5 F 12.060202 9.578466 -3.698634 0
M  V30 6 C 11.114333 6.624164 -5.665033 0
M  V30 7 C 11.830408 9.319397 -6.065185 0
M  V30 8 C 8.013808 6.006284 -13.272159 0 CFG=1
M  V30 9 C 11.771888 8.790539 -4.761931 0
M  V30 10 N 6.857696 5.275153 -15.108336 0 CHG=1
M  V30 11 N 8.575409 6.242133 -10.785016 0 CFG=1 CHG=1
M  V30 12 C 6.835032 7.032113 -13.594387 0 CFG=2
M  V30 13 C 11.540543 8.500897 -7.175880 0
M  V30 14 C 5.755405 7.232269 -12.514110 0
M  V30 15 C 9.199872 4.963961 -11.115568 0
M  V30 16 O 11.624865 9.035387 -8.446300 0
M  V30 17 C 9.775413 8.179555 -9.770782 0
M  V30 18 F 11.375410 6.928588 -3.310899 0
M  V30 19 C 9.267088 4.812588 -15.228940 0
M  V30 20 C 9.332393 7.487625 -11.072739 0
M  V30 21 C 7.973859 5.443443 -11.850373 0 CFG=2
M  V30 22 C 8.004255 4.854196 -14.355659 0 CFG=1
M  V30 23 H 5.405717 6.685540 -15.317604 0
M  V30 24 H 10.949021 6.503620 -7.804913 0
M  V30 25 H 11.779151 7.284585 -9.592188 0
M  V30 26 H 11.731047 8.790143 -10.441886 0
M  V30 27 H 10.843354 5.592356 -5.508881 0
M  V30 28 H 12.106684 10.352668 -6.214728 0
M  V30 29 H 8.959082 6.522071 -13.401952 0
M  V30 30 H 4.975402 7.911583 -12.858622 0
M  V30 31 H 5.270862 6.297503 -12.231184 0
M  V30 32 H 6.174457 7.676483 -11.611123 0
M  V30 33 H 9.111785 4.287606 -10.268565 0
M  V30 34 H 10.175413 5.069704 -11.585001 0
M  V30 35 H 9.367859 9.190226 -9.756508 0
M  V30 36 H 9.323467 7.692799 -8.907179 0
M  V30 37 H 10.161720 4.692581 -14.618589 0
M  V30 38 H 9.230579 3.990223 -15.943141 0
M  V30 39 H 9.389858 5.733175 -15.800182 0
M  V30 40 H 10.186808 7.315125 -11.728345 0
M  V30 41 H 8.667504 8.170588 -11.602499 0
M  V30 42 H 7.033378 5.003329 -11.524960 0
M  V30 43 H 7.771406 3.879929 -13.922788 0
M  V30 44 H 7.948850 6.292678 -9.985068 0
M  V30 45 H 7.245287 7.990227 -13.914887 0
M  V30 46 H 6.543395 4.724669 -15.903820 0
M  V30 END ATOM
M  V30 BEGIN BOND
M  V30 1 1 6 2
M  V30 2 2 6 3
M  V30 3 2 9 2
M  V30 4 1 9 5
M  V30 5 1 9 7
M  V30 6 2 10 1
M  V30 7 1 12 1
M  V30 8 1 12 8
M  V30 9 1 13 3
M  V30 10 2 13 7
M  V30 11 1 14 12
M  V30 12 1 15 11
M  V30 13 1 16 4
M  V30 14 1 16 13
M  V30 15 1 17 4
M  V30 16 1 18 2
M  V30 17 1 20 11
M  V30 18 1 20 17
M  V30 19 1 21 8
M  V30 20 1 21 11
M  V30 21 1 21 15
M  V30 22 1 22 8
M  V30 23 1 22 10
M  V30 24 1 22 19
M  V30 25 1 23 1
M  V30 26 1 24 3
M  V30 27 1 25 4
M  V30 28 1 26 4
M  V30 29 1 27 6
M  V30 30 1 28 7
M  V30 31 1 8 29 CFG=1
M  V30 32 1 30 14
M  V30 33 1 31 14
M  V30 34 1 32 14
M  V30 35 1 33 15
M  V30 36 1 34 15
M  V30 37 1 35 17
M  V30 38 1 36 17
M  V30 39 1 37 19
M  V30 40 1 38 19
M  V30 41 1 39 19
M  V30 42 1 40 20
M  V30 43 1 41 20
M  V30 44 1 21 42 CFG=1
M  V30 45 1 22 43 CFG=1
M  V30 46 1 11 44 CFG=1
M  V30 47 1 12 45 CFG=3
M  V30 48 1 46 10
M  V30 END BOND
M  V30 END CTAB
M  END
>  <i_epik_Tot_Q>  (1) 
2

>  <i_epik_Tot_abs_Q>  (1) 
2

>  <i_i_glide_confnum>  (1) 
65

>  <i_i_glide_lignum>  (1) 
149

>  <i_i_glide_posenum>  (1) 
323

>  <i_i_glide_rotatable_bonds>  (1) 
6

>  <i_lp_mmshare_version>  (1) 
72125

>  <i_m_source_file_index>  (1) 
84

>  <i_f3d_flags>  (1) 
0

>  <num_sample>  (1) 
100

>  <b_lp_Chiralities_Consistent>  (1) 
1

>  <r_epik_Charging_Adjusted_Penalty>  (1) 
1.5610925274032894

>  <r_epik_Ionization_Penalty>  (1) 
5.6947270193771686

>  <r_epik_Ionization_Penalty_Charging>  (1) 
0.86989266313289404

>  <r_epik_Ionization_Penalty_Neutral>  (1) 
4.824834356244275

>  <r_epik_State_Penalty>  (1) 
0.69119986427039537

>  <r_glide_ring_energy>  (1) 
0

>  <r_i_docking_score>  (1) 
-4.9550886864427781

>  <r_i_glide_ecoul>  (1) 
-6.7881384880930566

>  <r_i_glide_eff_state_penalty>  (1) 
0.69119986427039537

>  <r_i_glide_einternal>  (1) 
8.2974465999281222

>  <r_i_glide_emodel>  (1) 
-46.128750238049861

>  <r_i_glide_emodel_strain>  (1) 
1.4187214570261943

>  <r_i_glide_energy>  (1) 
-33.440933743921768

>  <r_i_glide_erotb>  (1) 
0.96167990521069524

>  <r_i_glide_esite>  (1) 
-0.089102485913353804

>  <r_i_glide_evdw>  (1) 
-26.65279525582871

>  <r_i_glide_gscore>  (1) 
-5.6462885507131739

>  <r_i_glide_gscore_strain>  (1) 
0

>  <r_i_glide_hbond>  (1) 
-0.1081125970201303

>  <r_i_glide_ligand_efficiency>  (1) 
-0.2252313039292172

>  <r_i_glide_ligand_efficiency_ln>  (1) 
-1.2112044162179669

>  <r_i_glide_ligand_efficiency_sa>  (1) 
-0.63110697210446387

>  <r_i_glide_lipo>  (1) 
-2.1567172068778926

>  <r_i_glide_metal>  (1) 
-0

>  <r_i_glide_rewards>  (1) 
-1.9031756301070968

>  <r_lp_Energy>  (1) 
41.591741999999996

>  <r_lp_tautomer_probability>  (1) 
1

>  <s_epik_Chemistry_Notes>  (1) 
This compound has an imine and may undergo hydrolysis.

>  <s_epik_cmdline>  (1) 
J2VwaWtfcHl0aG9uJywgJy1waHQnLCAnMS4wJywgJy1waCcsICc3LjQnLCAnLXRuJywgJzgnLCAnLW1hJywgJzUwMCcsICctaW1hZScsICc8aW5maWxlLm1hZT4nLCAnLW9tYWUnLCAnPG91dGZpbGUubWFlPic=

>  <s_epik_input>  (1) 
W0NIM11bQ0BASF0xTj1bQ0hdW0NAQEhdKFtDSDNdKVtDQEhdMVtDQEhdMltDSDJdTjJbQ0gyXVtDSDJdW0NIMl1PYyhbY0hdYzNGKVtjSF1bY0hdYzNG

>  <s_glide_docking_method>  (1) 
confgen

>  <s_i_glide_gridfile>  (1) 
gpcr_drd2_6luq_protein_autoprepared_prepared

>  <s_lp_Force_Field>  (1) 
S-OPLS

>  <s_lp_Variant>  (1) 
DiffSBDD_83-3

>  <s_m_source_file>  (1) 
generated_generic_title2_ligand_DiffSBDD_2026-06-23_prepared.sdf

>  <GenAI_Model>  (1) 
DiffSBDD

>  <Protein>  (1) 
generic_title2

$$$$
DiffSBDD_26
     RDKit          3D

  0  0  0  0  0  0  0  0  0  0999 V3000
M  V30 BEGIN CTAB
M  V30 COUNTS 56 58 0 0 1
M  V30 BEGIN ATOM
M  V30 1 C 6.160383 5.515900 -14.164988 0
M  V30 2 O 12.347088 7.652054 -9.811752 0
M  V30 3 C 6.874470 5.578990 -17.186334 0 CFG=1
M  V30 4 C 9.287557 4.876105 -8.968894 0
M  V30 5 C 6.313712 4.839911 -19.582665 0
M  V30 6 C 8.457946 5.575991 -13.536854 0
M  V30 7 C 8.129510 5.222920 -11.010364 0 CFG=2
M  V30 8 C 7.766765 4.790222 -8.717978 0
M  V30 9 C 5.679691 4.410254 -11.920295 0
M  V30 10 N 7.100546 5.190226 -9.985041 0 CFG=2 CHG=1
M  V30 11 N 9.375418 7.077791 -9.796155 0
M  V30 12 C 6.027358 6.858548 -17.161263 0
M  V30 13 C 10.135466 8.045905 -10.556407 0
M  V30 14 C 5.840759 4.509785 -10.391914 0
M  V30 15 C 7.427691 5.236487 -18.595442 0
M  V30 16 C 6.203617 5.666812 -12.637470 0 CFG=1
M  V30 17 C 7.522820 6.009164 -14.669563 0 CFG=1
M  V30 18 C 9.365137 5.687755 -10.258186 0 CFG=1
M  V30 19 O 4.827084 6.823482 -17.428716 0
M  V30 20 C 7.941412 5.488845 -16.062869 0
M  V30 21 O 11.848677 7.189923 -11.933567 0 CHG=-1
M  V30 22 C 7.677951 5.969840 -12.277289 0 CFG=2
M  V30 23 C 8.313637 6.341617 -19.202626 0
M  V30 24 C 11.565280 7.590236 -10.784973 0
M  V30 25 H 5.324730 6.070904 -14.588012 0
M  V30 26 H 6.024972 4.470336 -14.445666 0
M  V30 27 H 6.175393 4.790226 -16.944582 0
M  V30 28 H 9.775417 3.917607 -9.129853 0
M  V30 29 H 9.816989 5.336422 -8.132121 0
M  V30 30 H 5.655122 5.677625 -19.812785 0
M  V30 31 H 5.697298 4.034716 -19.181851 0
M  V30 32 H 6.734623 4.488955 -20.525165 0
M  V30 33 H 8.584396 4.492745 -13.569942 0
M  V30 34 H 9.460458 5.997332 -13.582916 0
M  V30 35 H 8.312327 4.181871 -11.288457 0
M  V30 36 H 7.406757 3.829413 -8.353196 0
M  V30 37 H 7.496158 5.522369 -7.958832 0
M  V30 38 H 4.634954 4.236955 -12.176737 0
M  V30 39 H 6.223008 3.533317 -12.276898 0
M  V30 40 H 8.429537 7.438898 -9.585022 0
M  V30 41 H 6.558510 7.770548 -16.891463 0
M  V30 42 H 9.649473 8.248139 -11.511111 0
M  V30 43 H 10.148418 8.972780 -9.985016 0
M  V30 44 H 5.776697 3.503660 -9.984609 0
M  V30 45 H 5.008018 5.089556 -9.996980 0
M  V30 46 H 8.057111 4.353343 -18.476722 0
M  V30 47 H 5.592175 6.520848 -12.338677 0
M  V30 48 H 7.505072 7.100462 -14.692433 0
M  V30 49 H 10.175412 5.405142 -10.898498 0
M  V30 50 H 8.217626 4.438638 -15.962938 0
M  V30 51 H 8.860554 5.989806 -16.361015 0
M  V30 52 H 7.768870 7.046286 -12.127829 0
M  V30 53 H 7.744884 7.248547 -19.405511 0
M  V30 54 H 8.745672 6.015151 -20.148511 0
M  V30 55 H 9.142363 6.604849 -18.546647 0
M  V30 56 H 6.880894 6.178315 -9.848686 0
M  V30 END ATOM
M  V30 BEGIN BOND
M  V30 1 1 8 4
M  V30 2 1 10 7
M  V30 3 1 10 8
M  V30 4 1 12 3
M  V30 5 1 13 11
M  V30 6 1 14 9
M  V30 7 1 14 10
M  V30 8 1 15 3
M  V30 9 1 15 5
M  V30 10 1 16 1
M  V30 11 1 16 9
M  V30 12 1 17 1
M  V30 13 1 17 6
M  V30 14 1 18 4
M  V30 15 1 18 7
M  V30 16 1 18 11
M  V30 17 2 19 12
M  V30 18 1 20 3
M  V30 19 1 20 17
M  V30 20 1 22 6
M  V30 21 1 22 7
M  V30 22 1 22 16
M  V30 23 1 23 15
M  V30 24 2 24 2
M  V30 25 1 24 13
M  V30 26 1 24 21
M  V30 27 1 25 1
M  V30 28 1 26 1
M  V30 29 1 3 27 CFG=1
M  V30 30 1 28 4
M  V30 31 1 29 4
M  V30 32 1 30 5
M  V30 33 1 31 5
M  V30 34 1 32 5
M  V30 35 1 33 6
M  V30 36 1 34 6
M  V30 37 1 7 35 CFG=3
M  V30 38 1 36 8
M  V30 39 1 37 8
M  V30 40 1 38 9
M  V30 41 1 39 9
M  V30 42 1 40 11
M  V30 43 1 41 12
M  V30 44 1 42 13
M  V30 45 1 43 13
M  V30 46 1 44 14
M  V30 47 1 45 14
M  V30 48 1 46 15
M  V30 49 1 16 47 CFG=3
M  V30 50 1 17 48 CFG=3
M  V30 51 1 18 49 CFG=3
M  V30 52 1 50 20
M  V30 53 1 51 20
M  V30 54 1 22 52 CFG=1
M  V30 55 1 53 23
M  V30 56 1 54 23
M  V30 57 1 55 23
M  V30 58 1 10 56 CFG=1
M  V30 END BOND
M  V30 END CTAB
M  END
>  <i_epik_Tot_Q>  (1) 
0

>  <i_epik_Tot_abs_Q>  (1) 
2

>  <i_i_glide_confnum>  (1) 
150

>  <i_i_glide_lignum>  (1) 
46

>  <i_i_glide_posenum>  (1) 
252

>  <i_i_glide_rotatable_bonds>  (1) 
7

>  <i_lp_mmshare_version>  (1) 
72125

>  <i_m_source_file_index>  (1) 
27

>  <i_f3d_flags>  (1) 
0

>  <num_sample>  (1) 
100

>  <b_lp_Chiralities_Consistent>  (1) 
1

>  <r_epik_Charging_Adjusted_Penalty>  (1) 
0.19178745009715187

>  <r_epik_Ionization_Penalty>  (1) 
0.029917907437945299

>  <r_epik_Ionization_Penalty_Charging>  (1) 
0.0050195782491265998

>  <r_epik_Ionization_Penalty_Neutral>  (1) 
0.024898329188818697

>  <r_epik_State_Penalty>  (1) 
0.18676787184802526

>  <r_glide_ring_energy>  (1) 
0

>  <r_i_docking_score>  (1) 
-4.9540265834149837

>  <r_i_glide_ecoul>  (1) 
-10.835576923869482

>  <r_i_glide_eff_state_penalty>  (1) 
0.18676787184802526

>  <r_i_glide_einternal>  (1) 
4.741764189446398

>  <r_i_glide_emodel>  (1) 
-32.507081991538996

>  <r_i_glide_emodel_strain>  (1) 
0.40931506239035542

>  <r_i_glide_energy>  (1) 
-25.739768865227923

>  <r_i_glide_erotb>  (1) 
0.66727664270853937

>  <r_i_glide_esite>  (1) 
-0.10000000000000001

>  <r_i_glide_evdw>  (1) 
-14.904191941358443

>  <r_i_glide_gscore>  (1) 
-5.1407944552630092

>  <r_i_glide_gscore_strain>  (1) 
0

>  <r_i_glide_hbond>  (1) 
-0.35999999999999999

>  <r_i_glide_ligand_efficiency>  (1) 
-0.20641777430895766

>  <r_i_glide_ligand_efficiency_ln>  (1) 
-1.1857258868783929

>  <r_i_glide_ligand_efficiency_sa>  (1) 
-0.5954118926018116

>  <r_i_glide_lipo>  (1) 
-0.98985051124861001

>  <r_i_glide_metal>  (1) 
-0

>  <r_i_glide_rewards>  (1) 
-1.9876744510745927

>  <r_lp_Energy>  (1) 
40.618023999999998

>  <r_lp_tautomer_probability>  (1) 
0.99990000499974985

>  <s_epik_cmdline>  (1) 
J2VwaWtfcHl0aG9uJywgJy1waHQnLCAnMS4wJywgJy1waCcsICc3LjQnLCAnLXRuJywgJzgnLCAnLW1hJywgJzUwMCcsICctaW1hZScsICc8aW5maWxlLm1hZT4nLCAnLW9tYWUnLCAnPG91dGZpbGUubWFlPic=

>  <s_epik_input>  (1) 
W0NIM11bQ0hdKFtDSDNdKVtDQEhdKFtDSF09TylbQ0gyXVtDQEBIXShbQ0gyXTEpW0NIMl1bQ0BIXTJbQ0BASF0xW0NIMl1bQ0gyXU4oW0NAQEhdMjMpW0NIMl1bQ0gyXVtDQEBIXTNbTkhdW0NIMl1DKD1PKVtPSF0=

>  <s_glide_docking_method>  (1) 
confgen

>  <s_i_glide_gridfile>  (1) 
gpcr_drd2_6luq_protein_autoprepared_prepared

>  <s_lp_Force_Field>  (1) 
S-OPLS

>  <s_lp_Variant>  (1) 
DiffSBDD_26-2

>  <s_m_source_file>  (1) 
generated_generic_title2_ligand_DiffSBDD_2026-06-23_prepared.sdf

>  <GenAI_Model>  (1) 
DiffSBDD

>  <Protein>  (1) 
generic_title2

$$$$
DiffSBDD_71
     RDKit          3D

  0  0  0  0  0  0  0  0  0  0999 V3000
M  V30 BEGIN CTAB
M  V30 COUNTS 55 57 0 0 1
M  V30 BEGIN ATOM
M  V30 1 C 8.241249 6.856749 -12.709333 0 CFG=1
M  V30 2 O 5.381994 4.918629 -11.661069 0
M  V30 3 C 6.166467 5.162523 -18.284053 0 CFG=1
M  V30 4 C 6.183718 7.455820 -16.434179 0
M  V30 5 C 6.162680 6.090398 -11.603528 0
M  V30 6 C 11.775185 8.139866 -7.956491 0
M  V30 7 C 7.032590 5.093048 -15.849573 0
M  V30 8 N 6.936316 6.131773 -12.850116 0
M  V30 9 C 9.550554 5.966097 -7.468759 0
M  V30 10 O 10.177499 8.895576 -6.384790 0
M  V30 11 O 6.505250 5.912034 -19.424665 0
M  V30 12 C 6.083711 6.578936 -13.972084 0
M  V30 13 C 8.074543 8.392058 -12.618534 0
M  V30 14 C 4.991762 6.952588 -17.266663 0 CFG=2
M  V30 15 C 10.284470 6.577773 -6.539208 0
M  V30 16 C 11.379960 7.869487 -9.209057 0
M  V30 17 C 11.032104 7.833803 -6.705773 0 CFG=1
M  V30 18 C 7.405962 5.024923 -17.351085 0
M  V30 19 O 5.043124 5.590394 -17.584552 0
M  V30 20 O 6.300621 7.892605 -20.588490 0
M  V30 21 C 9.203876 6.299675 -11.659279 0
M  V30 22 C 6.792113 6.532198 -15.347097 0 CFG=2
M  V30 23 C 5.968753 7.160720 -19.658930 0
M  V30 24 C 9.375528 6.350173 -8.846693 0
M  V30 25 C 10.158380 7.164463 -9.626007 0
M  V30 26 O 9.799579 7.305068 -10.948416 0
M  V30 27 C 4.884829 7.589159 -18.652849 0
M  V30 28 O 9.384136 5.091835 -11.490299 0
M  V30 29 H 8.818379 6.641554 -13.589043 0
M  V30 30 H 5.425998 4.503938 -10.812025 0
M  V30 31 H 5.894261 4.172392 -18.649717 0
M  V30 32 H 5.976248 8.448098 -16.031117 0
M  V30 33 H 6.975166 7.594817 -17.158440 0
M  V30 34 H 5.543672 6.977797 -11.461026 0
M  V30 35 H 6.783607 5.989540 -10.719036 0
M  V30 36 H 12.704210 8.674050 -7.820436 0
M  V30 37 H 7.853251 4.669041 -15.268804 0
M  V30 38 H 6.175426 4.464769 -15.612433 0
M  V30 39 H 9.018457 5.086462 -7.171446 0
M  V30 40 H 9.394670 8.791479 -6.908980 0
M  V30 41 H 5.183347 5.965971 -14.024124 0
M  V30 42 H 5.733880 7.589948 -13.770525 0
M  V30 43 H 8.996949 8.922453 -12.385041 0
M  V30 44 H 7.775098 8.789825 -13.584320 0
M  V30 45 H 7.338531 8.683290 -11.869025 0
M  V30 46 H 4.070834 7.124933 -16.709584 0
M  V30 47 H 10.307748 6.153378 -5.545140 0
M  V30 48 H 12.025484 8.219984 -10.001488 0
M  V30 49 H 11.775062 7.809608 -5.914129 0
M  V30 50 H 8.156917 5.776870 -17.599499 0
M  V30 51 H 7.870989 4.064646 -17.575938 0
M  V30 52 H 7.767425 6.974894 -15.186156 0
M  V30 53 H 8.531494 5.890416 -9.329330 0
M  V30 54 H 4.960941 8.670397 -18.562543 0
M  V30 55 H 3.910420 7.373903 -19.089401 0
M  V30 END ATOM
M  V30 BEGIN BOND
M  V30 1 1 5 2
M  V30 2 1 8 1
M  V30 3 1 8 5
M  V30 4 1 11 3
M  V30 5 1 12 8
M  V30 6 1 13 1
M  V30 7 1 14 4
M  V30 8 2 15 9
M  V30 9 2 16 6
M  V30 10 1 17 6
M  V30 11 1 17 10
M  V30 12 1 17 15
M  V30 13 1 18 3
M  V30 14 1 18 7
M  V30 15 1 19 3
M  V30 16 1 19 14
M  V30 17 1 21 1
M  V30 18 1 22 4
M  V30 19 1 22 7
M  V30 20 1 22 12
M  V30 21 1 23 11
M  V30 22 2 23 20
M  V30 23 1 24 9
M  V30 24 1 25 16
M  V30 25 2 25 24
M  V30 26 1 26 21
M  V30 27 1 26 25
M  V30 28 1 27 14
M  V30 29 1 27 23
M  V30 30 2 28 21
M  V30 31 1 1 29 CFG=3
M  V30 32 1 30 2
M  V30 33 1 3 31 CFG=3
M  V30 34 1 32 4
M  V30 35 1 33 4
M  V30 36 1 34 5
M  V30 37 1 35 5
M  V30 38 1 36 6
M  V30 39 1 37 7
M  V30 40 1 38 7
M  V30 41 1 39 9
M  V30 42 1 40 10
M  V30 43 1 41 12
M  V30 44 1 42 12
M  V30 45 1 43 13
M  V30 46 1 44 13
M  V30 47 1 45 13
M  V30 48 1 14 46 CFG=1
M  V30 49 1 47 15
M  V30 50 1 48 16
M  V30 51 1 17 49 CFG=1
M  V30 52 1 50 18
M  V30 53 1 51 18
M  V30 54 1 22 52 CFG=1
M  V30 55 1 53 24
M  V30 56 1 54 27
M  V30 57 1 55 27
M  V30 END BOND
M  V30 END CTAB
M  END
>  <i_epik_Tot_Q>  (1) 
0

>  <i_epik_Tot_abs_Q>  (1) 
0

>  <i_i_glide_confnum>  (1) 
56

>  <i_i_glide_lignum>  (1) 
115

>  <i_i_glide_posenum>  (1) 
139

>  <i_i_glide_rotatable_bonds>  (1) 
9

>  <i_lp_mmshare_version>  (1) 
72125

>  <i_m_source_file_index>  (1) 
72

>  <i_f3d_flags>  (1) 
0

>  <num_sample>  (1) 
100

>  <b_lp_Chiralities_Consistent>  (1) 
1

>  <r_epik_Charging_Adjusted_Penalty>  (1) 
0

>  <r_epik_Ionization_Penalty>  (1) 
0.0080147773199130048

>  <r_epik_Ionization_Penalty_Charging>  (1) 
0

>  <r_epik_Ionization_Penalty_Neutral>  (1) 
0.0080147773199130048

>  <r_epik_State_Penalty>  (1) 
-0

>  <r_glide_ring_energy>  (1) 
0.62074138562282111

>  <r_i_docking_score>  (1) 
-4.9502916386575029

>  <r_i_glide_ecoul>  (1) 
-3.4414164652686221

>  <r_i_glide_eff_state_penalty>  (1) 
-0

>  <r_i_glide_einternal>  (1) 
5.4419719005097971

>  <r_i_glide_emodel>  (1) 
-40.67172014119997

>  <r_i_glide_emodel_strain>  (1) 
3.3925708343592191

>  <r_i_glide_energy>  (1) 
-36.457751042084119

>  <r_i_glide_erotb>  (1) 
0.75718691864975285

>  <r_i_glide_esite>  (1) 
-0.10600486786186561

>  <r_i_glide_evdw>  (1) 
-33.016334576815495

>  <r_i_glide_gscore>  (1) 
-4.9502916386575029

>  <r_i_glide_gscore_strain>  (1) 
0

>  <r_i_glide_hbond>  (1) 
0

>  <r_i_glide_ligand_efficiency>  (1) 
-0.17679612995205368

>  <r_i_glide_ligand_efficiency_ln>  (1) 
-1.1426726570803791

>  <r_i_glide_ligand_efficiency_sa>  (1) 
-0.53685717848270276

>  <r_i_glide_lipo>  (1) 
-2.3265881208746348

>  <r_i_glide_metal>  (1) 
-0

>  <r_i_glide_rewards>  (1) 
-1.1078563699396877

>  <r_lp_Energy>  (1) 
45.945371999999999

>  <r_lp_tautomer_probability>  (1) 
1

>  <s_epik_Chemistry_Notes>  (1) 
This compound has an ester and may undergo hydrolysis at high or low pH. This compound contains an acetal/aminal-like group ( X-CH(R)-Y where X, Y are N, S, or O) that may be acid/base labile, releasing an aldehyde.

>  <s_epik_cmdline>  (1) 
J2VwaWtfcHl0aG9uJywgJy1waHQnLCAnMS4wJywgJy1waCcsICc3LjQnLCAnLXRuJywgJzgnLCAnLW1hJywgJzUwMCcsICctaW1hZScsICc8aW5maWxlLm1hZT4nLCAnLW9tYWUnLCAnPG91dGZpbGUubWFlPic=

>  <s_epik_input>  (1) 
W09IXVtDQEBIXTFbQ0hdPVtDSF1DKD1bQ0hdW0NIXT1bQ0hdMSlPQyg9TylbQ0BIXShbQ0gzXSlOKFtDSDJdW09IXSlbQ0gyXVtDQEBIXShbQ0gyXVtDSDJdMilbQ0gyXVtDQEhdKE8zKVtDSDJdQyg9TylPW0NAQEhdMjM=

>  <s_glide_docking_method>  (1) 
confgen

>  <s_i_glide_gridfile>  (1) 
gpcr_drd2_6luq_protein_autoprepared_prepared

>  <s_lp_Force_Field>  (1) 
S-OPLS

>  <s_lp_Variant>  (1) 
DiffSBDD_71-1

>  <s_m_source_file>  (1) 
generated_generic_title2_ligand_DiffSBDD_2026-06-23_prepared.sdf

>  <GenAI_Model>  (1) 
DiffSBDD

>  <Protein>  (1) 
generic_title2

$$$$
DiffSBDD_31
     RDKit          3D

  0  0  0  0  0  0  0  0  0  0999 V3000
M  V30 BEGIN CTAB
M  V30 COUNTS 103 109 0 0 1
M  V30 BEGIN ATOM
M  V30 1 C 10.615701 4.755497 -21.740501 0
M  V30 2 C 10.189684 5.063208 -15.845096 0
M  V30 3 C 9.970471 7.404908 -8.016053 0 CFG=2
M  V30 4 C 10.368812 3.420799 -18.905143 0
M  V30 5 O 10.401025 5.904971 -13.585302 0
M  V30 6 C 4.825655 6.763745 -18.140352 0
M  V30 7 C 11.461594 5.596716 -20.772663 0
M  V30 8 C 6.421100 7.071273 -12.091386 0
M  V30 9 C 9.447422 3.967625 -21.105514 0 CFG=1
M  V30 10 C 12.393313 4.759180 -19.910161 0 CFG=2
M  V30 11 C 5.292982 7.773478 -19.181937 0 CFG=1
M  V30 12 C 11.851528 3.700846 -18.971603 0 CFG=1
M  V30 13 C 11.603557 5.620393 -16.138620 0
M  V30 14 C 12.658401 7.375612 -17.638920 0 CFG=1
M  V30 15 C 3.554916 7.226568 -17.423348 0
M  V30 16 C 12.533672 4.930897 -18.407387 0 CFG=2
M  V30 17 C 8.761664 3.580522 -12.642414 0
M  V30 18 C 6.371217 7.347804 -20.146060 0 CFG=2
M  V30 19 C 7.427956 5.426425 -13.650166 0
M  V30 20 C 5.739995 6.068615 -11.162815 0
M  V30 21 C 11.084263 7.626795 -9.046661 0
M  V30 22 O 10.974198 7.245442 -11.407394 0
M  V30 23 O 9.877385 2.978654 -20.167781 0
M  V30 24 N 6.201193 5.999687 -20.730550 0 CFG=1 CHG=1
M  V30 25 C 11.852136 6.046199 -17.603484 0 CFG=1
M  V30 26 C 10.406199 7.189975 -10.327701 0
M  V30 27 C 8.541413 4.417390 -13.920729 0 CFG=1
M  V30 28 C 4.971242 6.372406 -21.410648 0
M  V30 29 C 6.866821 5.189826 -10.590442 0
M  V30 30 C 7.734913 6.384515 -12.464668 0 CFG=2
M  V30 31 C 7.326982 5.446014 -21.507127 0
M  V30 32 C 8.975775 6.683918 -10.173169 0 CFG=1
M  V30 33 C 14.137654 7.259700 -17.230526 0
M  V30 34 C 8.310911 4.821679 -20.507052 0
M  V30 35 C 4.998087 7.683852 -20.667437 0 CFG=1
M  V30 36 O 9.527980 5.061951 -8.397110 0
M  V30 37 C 9.136895 4.425906 -11.414443 0
M  V30 38 O 12.583498 7.990203 -18.907444 0
M  V30 39 C 8.234213 5.667833 -11.159433 0 CFG=1
M  V30 40 C 9.775288 5.190232 -14.371459 0
M  V30 41 C 10.476614 7.056343 -6.605136 0
M  V30 42 C 5.943501 6.457885 -17.133504 0
M  V30 43 C 9.021845 6.357445 -8.649062 0 CFG=1
M  V30 44 H 11.268445 4.062271 -22.271224 0
M  V30 45 H 10.211550 5.416478 -22.507375 0
M  V30 46 H 10.122074 4.021239 -16.154933 0
M  V30 47 H 9.447706 5.615423 -16.422033 0
M  V30 48 H 9.407564 8.338042 -7.941911 0
M  V30 49 H 10.214781 2.615010 -18.187630 0
M  V30 50 H 9.826628 4.274245 -18.509823 0
M  V30 51 H 4.575724 5.835650 -18.650932 0
M  V30 52 H 12.086699 6.282362 -21.344930 0
M  V30 53 H 10.822153 6.232688 -20.170126 0
M  V30 54 H 5.802613 7.322185 -12.954044 0
M  V30 55 H 6.624482 8.012862 -11.584999 0
M  V30 56 H 9.004673 3.381142 -21.911687 0
M  V30 57 H 13.301753 4.472281 -20.436952 0
M  V30 58 H 5.375348 8.784106 -18.786910 0
M  V30 59 H 12.436896 2.784241 -18.948010 0
M  V30 60 H 11.779157 6.482807 -15.497855 0
M  V30 61 H 12.356921 4.893477 -15.839331 0
M  V30 62 H 12.179200 8.078972 -16.957985 0
M  V30 63 H 3.768520 8.018290 -16.706219 0
M  V30 64 H 2.826778 7.613094 -18.133424 0
M  V30 65 H 3.092905 6.403427 -16.875898 0
M  V30 66 H 13.522781 4.707829 -18.015263 0
M  V30 67 H 7.851850 3.017964 -12.433645 0
M  V30 68 H 9.533688 2.827298 -12.785591 0
M  V30 69 H 7.164455 7.985425 -20.533735 0
M  V30 70 H 6.508870 4.868681 -13.474406 0
M  V30 71 H 7.239163 6.020265 -14.545144 0
M  V30 72 H 5.037592 5.449067 -11.720761 0
M  V30 73 H 5.162670 6.564915 -10.384892 0
M  V30 74 H 11.423028 8.660793 -9.094605 0
M  V30 75 H 11.936307 6.981670 -8.856603 0
M  V30 76 H 10.877602 6.260590 -18.035380 0
M  V30 77 H 8.238495 3.756267 -14.733013 0
M  V30 78 H 5.080096 6.468622 -22.492547 0
M  V30 79 H 4.148405 5.705200 -21.152439 0
M  V30 80 H 6.660512 4.160256 -10.881030 0
M  V30 81 H 6.856218 5.179147 -9.509790 0
M  V30 82 H 8.442086 7.150894 -12.781152 0
M  V30 83 H 7.797874 6.211587 -22.125294 0
M  V30 84 H 6.941598 4.675805 -22.177392 0
M  V30 85 H 8.575446 7.669539 -10.372091 0
M  V30 86 H 14.246932 6.787744 -16.252628 0
M  V30 87 H 14.713526 6.675632 -17.949318 0
M  V30 88 H 14.599352 8.245514 -17.174188 0
M  V30 89 H 7.733626 4.165712 -19.852797 0
M  V30 90 H 8.707041 5.605035 -19.861791 0
M  V30 91 H 4.905336 8.599756 -21.249168 0
M  V30 92 H 9.416870 4.885035 -7.475812 0
M  V30 93 H 10.175572 4.721231 -11.508172 0
M  V30 94 H 9.134169 3.777357 -10.543844 0
M  V30 95 H 12.581047 8.931416 -18.763333 0
M  V30 96 H 11.113113 6.171046 -6.609596 0
M  V30 97 H 11.059260 7.875935 -6.185610 0
M  V30 98 H 9.640129 6.858146 -5.934040 0
M  V30 99 H 6.245420 7.357116 -16.595466 0
M  V30 100 H 5.614718 5.725966 -16.396575 0
M  V30 101 H 6.830080 6.052655 -17.623151 0
M  V30 102 H 8.063048 6.390262 -8.159810 0
M  V30 103 H 5.968321 5.356490 -19.987122 0
M  V30 END ATOM
M  V30 BEGIN BOND
M  V30 1 1 7 1
M  V30 2 1 9 1
M  V30 3 1 10 7
M  V30 4 1 11 6
M  V30 5 1 12 4
M  V30 6 1 12 10
M  V30 7 1 13 2
M  V30 8 1 15 6
M  V30 9 1 16 10
M  V30 10 1 16 12
M  V30 11 1 18 11
M  V30 12 1 20 8
M  V30 13 1 21 3
M  V30 14 1 23 4
M  V30 15 1 23 9
M  V30 16 1 24 18
M  V30 17 1 25 13
M  V30 18 1 25 14
M  V30 19 1 25 16
M  V30 20 1 26 21
M  V30 21 2 26 22
M  V30 22 1 27 17
M  V30 23 1 27 19
M  V30 24 1 28 24
M  V30 25 1 29 20
M  V30 26 1 30 8
M  V30 27 1 30 19
M  V30 28 1 31 24
M  V30 29 1 32 26
M  V30 30 1 33 14
M  V30 31 1 34 9
M  V30 32 1 34 31
M  V30 33 1 35 11
M  V30 34 1 35 18
M  V30 35 1 35 28
M  V30 36 1 37 17
M  V30 37 1 38 14
M  V30 38 1 39 29 CFG=1
M  V30 39 1 39 30
M  V30 40 1 39 32
M  V30 41 1 39 37
M  V30 42 1 40 2
M  V30 43 2 40 5
M  V30 44 1 40 27
M  V30 45 1 41 3
M  V30 46 1 42 6
M  V30 47 1 43 3
M  V30 48 1 43 32
M  V30 49 1 43 36
M  V30 50 1 44 1
M  V30 51 1 45 1
M  V30 52 1 46 2
M  V30 53 1 47 2
M  V30 54 1 3 48 CFG=1
M  V30 55 1 49 4
M  V30 56 1 50 4
M  V30 57 1 51 6
M  V30 58 1 52 7
M  V30 59 1 53 7
M  V30 60 1 54 8
M  V30 61 1 55 8
M  V30 62 1 9 56 CFG=3
M  V30 63 1 10 57 CFG=3
M  V30 64 1 11 58 CFG=1
M  V30 65 1 12 59 CFG=3
M  V30 66 1 60 13
M  V30 67 1 61 13
M  V30 68 1 14 62 CFG=1
M  V30 69 1 63 15
M  V30 70 1 64 15
M  V30 71 1 65 15
M  V30 72 1 16 66 CFG=3
M  V30 73 1 67 17
M  V30 74 1 68 17
M  V30 75 1 18 69 CFG=3
M  V30 76 1 70 19
M  V30 77 1 71 19
M  V30 78 1 72 20
M  V30 79 1 73 20
M  V30 80 1 74 21
M  V30 81 1 75 21
M  V30 82 1 25 76 CFG=3
M  V30 83 1 27 77 CFG=3
M  V30 84 1 78 28
M  V30 85 1 79 28
M  V30 86 1 80 29
M  V30 87 1 81 29
M  V30 88 1 30 82 CFG=3
M  V30 89 1 83 31
M  V30 90 1 84 31
M  V30 91 1 32 85 CFG=1
M  V30 92 1 86 33
M  V30 93 1 87 33
M  V30 94 1 88 33
M  V30 95 1 89 34
M  V30 96 1 90 34
M  V30 97 1 35 91 CFG=3
M  V30 98 1 92 36
M  V30 99 1 93 37
M  V30 100 1 94 37
M  V30 101 1 95 38
M  V30 102 1 96 41
M  V30 103 1 97 41
M  V30 104 1 98 41
M  V30 105 1 99 42
M  V30 106 1 100 42
M  V30 107 1 101 42
M  V30 108 1 43 102 CFG=1
M  V30 109 1 24 103 CFG=1
M  V30 END BOND
M  V30 END CTAB
M  END
>  <i_epik_Tot_Q>  (1) 
1

>  <i_epik_Tot_abs_Q>  (1) 
1

>  <i_i_glide_confnum>  (1) 
890

>  <i_i_glide_lignum>  (1) 
53

>  <i_i_glide_posenum>  (1) 
264

>  <i_i_glide_rotatable_bonds>  (1) 
13

>  <i_lp_mmshare_version>  (1) 
72125

>  <i_m_source_file_index>  (1) 
32

>  <i_f3d_flags>  (1) 
0

>  <num_sample>  (1) 
100

>  <b_lp_Chiralities_Consistent>  (1) 
1

>  <r_epik_Charging_Adjusted_Penalty>  (1) 
0.00082013732971917403

>  <r_epik_Ionization_Penalty>  (1) 
0.00082046965520535795

>  <r_epik_Ionization_Penalty_Charging>  (1) 
0.00082013732971917403

>  <r_epik_Ionization_Penalty_Neutral>  (1) 
3.3232548618397322e-07

>  <r_epik_State_Penalty>  (1) 
-0

>  <r_glide_ring_energy>  (1) 
1.7158683604837299

>  <r_i_docking_score>  (1) 
-4.9469832633528439

>  <r_i_glide_ecoul>  (1) 
-4.4153082219713955

>  <r_i_glide_eff_state_penalty>  (1) 
-0

>  <r_i_glide_einternal>  (1) 
38.19826711964182

>  <r_i_glide_emodel>  (1) 
-11.296512757001718

>  <r_i_glide_emodel_strain>  (1) 
4.2320590360835695

>  <r_i_glide_energy>  (1) 
-26.912556409506116

>  <r_i_glide_erotb>  (1) 
0.46956192147436254

>  <r_i_glide_esite>  (1) 
-0.058526415727115137

>  <r_i_glide_evdw>  (1) 
-22.497248187534719

>  <r_i_glide_gscore>  (1) 
-4.9469832633528439

>  <r_i_glide_gscore_strain>  (1) 
0.05801475902089237

>  <r_i_glide_hbond>  (1) 
-0.32000000000000001

>  <r_i_glide_ligand_efficiency>  (1) 
-0.11504612240355451

>  <r_i_glide_ligand_efficiency_ln>  (1) 
-1.0390202350552156

>  <r_i_glide_ligand_efficiency_sa>  (1) 
-0.4030523620836266

>  <r_i_glide_lipo>  (1) 
-2.5280989393994822

>  <r_i_glide_metal>  (1) 
-0

>  <r_i_glide_rewards>  (1) 
-0.78077594604905531

>  <r_lp_Energy>  (1) 
46.113288999999995

>  <r_lp_tautomer_probability>  (1) 
1

>  <s_epik_cmdline>  (1) 
J2VwaWtfcHl0aG9uJywgJy1waHQnLCAnMS4wJywgJy1waCcsICc3LjQnLCAnLXRuJywgJzgnLCAnLW1hJywgJzUwMCcsICctaW1hZScsICc8aW5maWxlLm1hZT4nLCAnLW9tYWUnLCAnPG91dGZpbGUubWFlPic=

>  <s_epik_input>  (1) 
W0NIM11bQ0hdKFtDSDNdKVtDQEBIXTFbQ0BASF0oW0NAQEhdMTIpW0NIMl1OMltDSDJdW0NIMl1bQ0BASF0oW0NIMl1bQ0gyXTMpT1tDSDJdW0NAQEhdKFtDQEBIXTM0KVtDQEBIXTRbQ0BIXShbQ0BASF0oW0NIM10pW09IXSlbQ0gyXVtDSDJdQyg9TylbQ0BASF0oW0NIMl1bQ0gyXTUpW0NIMl1bQ0BASF0oW0NIMl1bQ0gyXVtDSDJdNilbQ0BdNTZbQ0BASF0oW0NASF03W09IXSlDKD1PKVtDSDJdW0NAQEhdN1tDSDNd

>  <s_glide_docking_method>  (1) 
confgen

>  <s_i_glide_gridfile>  (1) 
gpcr_drd2_6luq_protein_autoprepared_prepared

>  <s_lp_Force_Field>  (1) 
S-OPLS

>  <s_lp_Variant>  (1) 
DiffSBDD_31-2

>  <s_m_source_file>  (1) 
generated_generic_title2_ligand_DiffSBDD_2026-06-23_prepared.sdf

>  <GenAI_Model>  (1) 
DiffSBDD

>  <Protein>  (1) 
generic_title2

$$$$
DiffSBDD_78
     RDKit          3D

  0  0  0  0  0  0  0  0  0  0999 V3000
M  V30 BEGIN CTAB
M  V30 COUNTS 80 84 0 0 1
M  V30 BEGIN ATOM
M  V30 1 C 9.696135 8.403429 -7.827960 0 CFG=2
M  V30 2 C 11.191217 8.788022 -7.807374 0
M  V30 3 C 5.713405 3.602117 -12.783525 0 CFG=1
M  V30 4 C 7.138806 2.125919 -14.560583 0 CFG=2
M  V30 5 C 9.212333 7.921191 -6.462904 0
M  V30 6 N 7.631037 1.298567 -16.869527 0
M  V30 7 C 7.469048 1.915220 -13.052400 0 CFG=1
M  V30 8 C 8.118591 4.348449 -12.875169 0 CFG=1
M  V30 9 N 9.375439 7.299508 -8.749758 0 CFG=2 CHG=1
M  V30 10 C 9.540689 6.041150 -7.992988 0
M  V30 11 N 9.290611 5.175329 -13.300791 0 CFG=1 CHG=1
M  V30 12 C 6.192058 5.751272 -14.028597 0
M  V30 13 C 8.164481 1.534341 -15.533241 0
M  V30 14 C 6.990561 -0.309113 -18.584183 0
M  V30 15 O 6.974779 3.543550 -14.810886 0
M  V30 16 C 9.529661 5.271271 -14.760142 0
M  V30 17 C 6.353288 -1.686424 -18.826938 0 CFG=1
M  V30 18 C 5.863191 3.304998 -11.301903 0
M  V30 19 C 6.753935 4.360498 -13.643614 0 CFG=2
M  V30 20 F 7.116275 -2.622180 -18.257507 0
M  V30 21 C 9.261867 6.393672 -6.527750 0
M  V30 22 C 5.792182 6.646191 -12.841150 0
M  V30 23 O 5.692228 0.007881 -16.615922 0
M  V30 24 C 8.564853 2.900257 -12.616043 0
M  V30 25 C 4.962975 -1.711424 -18.171832 0 CFG=1
M  V30 26 C 9.381316 6.278496 -10.998432 0
M  V30 27 C 7.008799 -0.004230 -17.073306 0 CFG=2
M  V30 28 C 9.987180 7.360399 -10.104740 0
M  V30 29 C 9.528981 6.441367 -12.535517 0
M  V30 30 C 6.294075 -2.023264 -20.325988 0
M  V30 31 C 5.034661 -1.253696 -16.705273 0
M  V30 32 C 6.175408 2.224312 -12.350293 0 CFG=1
M  V30 33 F 4.149971 -0.886560 -18.830697 0
M  V30 34 H 9.087001 9.244349 -8.140292 0
M  V30 35 H 11.384629 9.551143 -7.052850 0
M  V30 36 H 11.824008 7.931410 -7.571450 0
M  V30 37 H 11.519851 9.197729 -8.762426 0
M  V30 38 H 4.701865 3.630230 -13.185037 0
M  V30 39 H 6.183007 1.637488 -14.756031 0
M  V30 40 H 8.178336 8.242665 -6.325906 0
M  V30 41 H 9.791706 8.323755 -5.631587 0
M  V30 42 H 6.957249 2.024505 -17.094212 0
M  V30 43 H 7.757215 0.884712 -12.839487 0
M  V30 44 H 7.834715 4.736307 -11.923795 0
M  V30 45 H 8.863576 5.267253 -8.357375 0
M  V30 46 H 10.564316 5.676634 -8.097262 0
M  V30 47 H 6.881322 6.298519 -14.663206 0
M  V30 48 H 5.306293 5.600197 -14.646339 0
M  V30 49 H 8.575351 0.611832 -15.123788 0
M  V30 50 H 8.975406 2.233518 -15.636416 0
M  V30 51 H 6.433059 0.474668 -19.100242 0
M  V30 52 H 8.013681 -0.289457 -18.961872 0
M  V30 53 H 8.880592 5.990101 -15.250547 0
M  V30 54 H 10.557430 5.584764 -14.947401 0
M  V30 55 H 9.389259 4.316367 -15.255876 0
M  V30 56 H 6.675477 3.693692 -10.703724 0
M  V30 57 H 4.975428 3.220411 -10.690167 0
M  V30 58 H 8.302408 5.990229 -6.205324 0
M  V30 59 H 10.033548 5.990455 -5.871226 0
M  V30 60 H 5.375518 7.589620 -13.194092 0
M  V30 61 H 5.036341 6.176903 -12.211966 0
M  V30 62 H 6.638687 6.886362 -12.202433 0
M  V30 63 H 8.896857 2.790237 -11.585076 0
M  V30 64 H 9.430665 2.654469 -13.185014 0
M  V30 65 H 4.516932 -2.704757 -18.237370 0
M  V30 66 H 8.320691 6.285604 -10.748158 0
M  V30 67 H 9.775453 5.308612 -10.691660 0
M  V30 68 H 7.572349 -0.773052 -16.539150 0
M  V30 69 H 11.070684 7.246399 -10.057567 0
M  V30 70 H 9.776398 8.343261 -10.528544 0
M  V30 71 H 10.541733 6.777791 -12.763801 0
M  V30 72 H 8.852181 7.223166 -12.880843 0
M  V30 73 H 5.699711 -1.291699 -20.875298 0
M  V30 74 H 7.291609 -2.034151 -20.765475 0
M  V30 75 H 5.848806 -3.004112 -20.493519 0
M  V30 76 H 5.559416 -1.989400 -16.095940 0
M  V30 77 H 4.033685 -1.158381 -16.286283 0
M  V30 78 H 5.463901 1.406745 -12.463161 0
M  V30 79 H 8.366198 7.409978 -8.909701 0
M  V30 80 H 10.069267 4.602239 -13.001031 0
M  V30 END ATOM
M  V30 BEGIN BOND
M  V30 1 1 2 1
M  V30 2 1 5 1
M  V30 3 1 7 4
M  V30 4 1 9 1
M  V30 5 1 10 9
M  V30 6 1 11 8
M  V30 7 1 13 4
M  V30 8 1 13 6
M  V30 9 1 15 4
M  V30 10 1 16 11
M  V30 11 1 17 14
M  V30 12 1 18 3
M  V30 13 1 19 3
M  V30 14 1 19 8
M  V30 15 1 19 12 CFG=3
M  V30 16 1 19 15
M  V30 17 1 17 20 CFG=1
M  V30 18 1 21 5
M  V30 19 1 21 10
M  V30 20 1 22 12
M  V30 21 1 24 7
M  V30 22 1 24 8
M  V30 23 1 25 17
M  V30 24 1 27 6
M  V30 25 1 27 14
M  V30 26 1 27 23
M  V30 27 1 28 9
M  V30 28 1 28 26
M  V30 29 1 29 11
M  V30 30 1 29 26
M  V30 31 1 30 17
M  V30 32 1 31 23
M  V30 33 1 31 25
M  V30 34 1 32 3
M  V30 35 1 32 7
M  V30 36 1 32 18
M  V30 37 1 33 25
M  V30 38 1 1 34 CFG=3
M  V30 39 1 35 2
M  V30 40 1 36 2
M  V30 41 1 37 2
M  V30 42 1 3 38 CFG=1
M  V30 43 1 4 39 CFG=3
M  V30 44 1 40 5
M  V30 45 1 41 5
M  V30 46 1 42 6
M  V30 47 1 7 43 CFG=3
M  V30 48 1 8 44 CFG=1
M  V30 49 1 45 10
M  V30 50 1 46 10
M  V30 51 1 47 12
M  V30 52 1 48 12
M  V30 53 1 49 13
M  V30 54 1 50 13
M  V30 55 1 51 14
M  V30 56 1 52 14
M  V30 57 1 53 16
M  V30 58 1 54 16
M  V30 59 1 55 16
M  V30 60 1 56 18
M  V30 61 1 57 18
M  V30 62 1 58 21
M  V30 63 1 59 21
M  V30 64 1 60 22
M  V30 65 1 61 22
M  V30 66 1 62 22
M  V30 67 1 63 24
M  V30 68 1 64 24
M  V30 69 1 25 65 CFG=1
M  V30 70 1 66 26
M  V30 71 1 67 26
M  V30 72 1 27 68 CFG=1
M  V30 73 1 69 28
M  V30 74 1 70 28
M  V30 75 1 71 29
M  V30 76 1 72 29
M  V30 77 1 73 30
M  V30 78 1 74 30
M  V30 79 1 75 30
M  V30 80 1 76 31
M  V30 81 1 77 31
M  V30 82 1 32 78 CFG=1
M  V30 83 1 9 79 CFG=3
M  V30 84 1 11 80 CFG=1
M  V30 END BOND
M  V30 END CTAB
M  END
>  <i_epik_Tot_Q>  (1) 
2

>  <i_epik_Tot_abs_Q>  (1) 
2

>  <i_i_glide_confnum>  (1) 
401

>  <i_i_glide_lignum>  (1) 
131

>  <i_i_glide_posenum>  (1) 
111

>  <i_i_glide_rotatable_bonds>  (1) 
9

>  <i_lp_mmshare_version>  (1) 
72125

>  <i_m_source_file_index>  (1) 
79

>  <i_f3d_flags>  (1) 
0

>  <num_sample>  (1) 
100

>  <b_lp_Chiralities_Consistent>  (1) 
1

>  <r_epik_Charging_Adjusted_Penalty>  (1) 
0.22182564166484353

>  <r_epik_Ionization_Penalty>  (1) 
0.22182564166592098

>  <r_epik_Ionization_Penalty_Charging>  (1) 
0.060182310347739972

>  <r_epik_Ionization_Penalty_Neutral>  (1) 
0.16164333131818101

>  <r_epik_State_Penalty>  (1) 
0.16164333131710357

>  <r_glide_ring_energy>  (1) 
0

>  <r_i_docking_score>  (1) 
-4.9456035358880372

>  <r_i_glide_ecoul>  (1) 
-7.9357319302515901

>  <r_i_glide_eff_state_penalty>  (1) 
0.16164333131710357

>  <r_i_glide_einternal>  (1) 
8.1866302876843164

>  <r_i_glide_emodel>  (1) 
-40.641547887049072

>  <r_i_glide_emodel_strain>  (1) 
0.525611102689723

>  <r_i_glide_energy>  (1) 
-33.758053282469902

>  <r_i_glide_erotb>  (1) 
0.726867567680611

>  <r_i_glide_esite>  (1) 
-0.12032286140109159

>  <r_i_glide_evdw>  (1) 
-25.822321352218314

>  <r_i_glide_gscore>  (1) 
-5.1072468672051405

>  <r_i_glide_gscore_strain>  (1) 
0

>  <r_i_glide_hbond>  (1) 
-0.20000000000000001

>  <r_i_glide_ligand_efficiency>  (1) 
-0.14986677381478899

>  <r_i_glide_ligand_efficiency_ln>  (1) 
-1.0998766194168459

>  <r_i_glide_ligand_efficiency_sa>  (1) 
-0.48070282193665537

>  <r_i_glide_lipo>  (1) 
-1.6083515276765334

>  <r_i_glide_metal>  (1) 
-0

>  <r_i_glide_rewards>  (1) 
-1.4239641886594714

>  <r_lp_Energy>  (1) 
71.261048000000002

>  <s_epik_Chemistry_Notes>  (1) 
This compound contains an acetal/aminal-like group ( X-CH(R)-Y where X, Y are N, S, or O) that may be acid/base labile, releasing an aldehyde.

>  <s_epik_cmdline>  (1) 
J2VwaWtfcHl0aG9uJywgJy1waHQnLCAnMS4wJywgJy1waCcsICc3LjQnLCAnLXRuJywgJzgnLCAnLW1hJywgJzUwMCcsICctaW1hZScsICc8aW5maWxlLm1hZT4nLCAnLW9tYWUnLCAnPG91dGZpbGUubWFlPic=

>  <s_epik_input>  (1) 
W0NIM11bQ0BASF0xW0NIMl1bQ0gyXVtDSDJdTjFbQ0gyXVtDSDJdW0NIMl1OKFtDSDNdKVtDQEBIXTJbQ0gyXVtDQEBIXShbQ0BASF0oW0NIMl0zKVtDQEBIXTNbQ0BAXTI0W0NIMl1bQ0gzXSlbQ0BASF0oTzQpW0NIMl1bTkhdW0NASF0oW0NIMl1bQ0BdNShGKVtDSDNdKU9bQ0gyXVtDQEhdNUY=

>  <s_glide_docking_method>  (1) 
confgen

>  <s_i_glide_gridfile>  (1) 
gpcr_drd2_6luq_protein_autoprepared_prepared

>  <s_lp_Force_Field>  (1) 
S-OPLS

>  <s_lp_Variant>  (1) 
DiffSBDD_78-3

>  <s_m_source_file>  (1) 
generated_generic_title2_ligand_DiffSBDD_2026-06-23_prepared.sdf

>  <GenAI_Model>  (1) 
DiffSBDD

>  <Protein>  (1) 
generic_title2

$$$$
DiffSBDD_46
     RDKit          3D

  0  0  0  0  0  0  0  0  0  0999 V3000
M  V30 BEGIN CTAB
M  V30 COUNTS 41 43 0 0 1
M  V30 BEGIN ATOM
M  V30 1 O 8.092104 3.380010 -13.585988 0
M  V30 2 C 6.354922 5.794555 -19.552373 0
M  V30 3 C 7.987301 4.231718 -12.706267 0
M  V30 4 F 10.236597 3.579661 -19.010160 0
M  V30 5 C 7.389187 7.068377 -14.321572 0
M  V30 6 O 6.191394 5.140444 -11.393313 0
M  V30 7 O 8.576155 8.130170 -11.287309 0
M  V30 8 C 9.992472 6.589528 -12.532033 0
M  V30 9 C 9.022657 4.370429 -11.597294 0
M  V30 10 C 8.592726 6.951648 -12.065416 0 CFG=1
M  V30 11 C 7.174795 5.226706 -18.555011 0
M  V30 12 C 9.348330 4.294443 -18.277869 0
M  V30 13 C 5.190469 7.111707 -17.859208 0
M  V30 14 S 5.775410 7.022155 -15.173147 0
M  V30 15 F 9.861825 5.544269 -18.148933 0
M  V30 16 C 5.386904 3.992593 -11.226799 0
M  V30 17 C 6.004717 6.547040 -16.860868 0
M  V30 18 C 6.810201 5.206685 -12.667953 0 CFG=1
M  V30 19 O 8.141042 4.307905 -18.910999 0
M  V30 20 C 5.363955 6.734478 -19.204496 0
M  V30 21 C 9.382632 5.831128 -11.387214 0 CFG=2
M  V30 22 C 6.992594 5.601071 -17.201643 0
M  V30 23 F 9.279041 3.710989 -17.055653 0
M  V30 24 C 7.287288 6.670003 -12.837617 0 CFG=2
M  V30 25 H 6.486609 5.508934 -20.586240 0
M  V30 26 H 8.107366 6.426203 -14.823391 0
M  V30 27 H 7.775179 8.083197 -14.393657 0
M  V30 28 H 7.943569 7.994397 -10.564977 0
M  V30 29 H 10.122181 6.017828 -13.451349 0
M  V30 30 H 10.802889 7.275964 -12.299960 0
M  V30 31 H 9.914892 3.793695 -11.836172 0
M  V30 32 H 8.599315 3.984263 -10.671751 0
M  V30 33 H 4.432052 7.833133 -17.594323 0
M  V30 34 H 4.975433 3.990274 -10.221389 0
M  V30 35 H 5.944192 3.066364 -11.350543 0
M  V30 36 H 4.576153 4.001559 -11.956125 0
M  V30 37 H 6.082256 4.941964 -13.435228 0
M  V30 38 H 4.737240 7.167531 -19.971313 0
M  V30 39 H 9.784060 6.046168 -10.398524 0
M  V30 40 H 7.605566 5.164693 -16.432432 0
M  V30 41 H 6.517778 7.307030 -12.397932 0
M  V30 END ATOM
M  V30 BEGIN BOND
M  V30 1 2 3 1
M  V30 2 1 9 3
M  V30 3 1 10 7 CFG=1
M  V30 4 1 10 8
M  V30 5 1 11 2
M  V30 6 1 12 4
M  V30 7 1 14 5
M  V30 8 1 15 12
M  V30 9 1 16 6
M  V30 10 2 17 13
M  V30 11 1 17 14
M  V30 12 1 18 3
M  V30 13 1 18 6
M  V30 14 1 19 11
M  V30 15 1 19 12
M  V30 16 2 20 2
M  V30 17 1 20 13
M  V30 18 1 21 8
M  V30 19 1 21 9
M  V30 20 1 21 10
M  V30 21 2 22 11
M  V30 22 1 22 17
M  V30 23 1 23 12
M  V30 24 1 24 5
M  V30 25 1 24 10
M  V30 26 1 24 18
M  V30 27 1 25 2
M  V30 28 1 26 5
M  V30 29 1 27 5
M  V30 30 1 28 7
M  V30 31 1 29 8
M  V30 32 1 30 8
M  V30 33 1 31 9
M  V30 34 1 32 9
M  V30 35 1 33 13
M  V30 36 1 34 16
M  V30 37 1 35 16
M  V30 38 1 36 16
M  V30 39 1 18 37 CFG=3
M  V30 40 1 38 20
M  V30 41 1 21 39 CFG=1
M  V30 42 1 40 22
M  V30 43 1 24 41 CFG=1
M  V30 END BOND
M  V30 END CTAB
M  END
>  <i_epik_Tot_Q>  (1) 
0

>  <i_epik_Tot_abs_Q>  (1) 
0

>  <i_i_glide_confnum>  (1) 
137

>  <i_i_glide_lignum>  (1) 
75

>  <i_i_glide_posenum>  (1) 
300

>  <i_i_glide_rotatable_bonds>  (1) 
7

>  <i_lp_mmshare_version>  (1) 
72125

>  <i_m_source_file_index>  (1) 
47

>  <i_f3d_flags>  (1) 
0

>  <num_sample>  (1) 
100

>  <b_lp_Chiralities_Consistent>  (1) 
1

>  <r_epik_Charging_Adjusted_Penalty>  (1) 
0

>  <r_epik_Ionization_Penalty>  (1) 
3.9372517810782557e-08

>  <r_epik_Ionization_Penalty_Charging>  (1) 
0

>  <r_epik_Ionization_Penalty_Neutral>  (1) 
3.9372517810782557e-08

>  <r_epik_State_Penalty>  (1) 
-0

>  <r_glide_ring_energy>  (1) 
0

>  <r_i_docking_score>  (1) 
-4.9403533749692974

>  <r_i_glide_ecoul>  (1) 
-6.5596080492668376

>  <r_i_glide_eff_state_penalty>  (1) 
-0

>  <r_i_glide_einternal>  (1) 
6.5546640588407534

>  <r_i_glide_emodel>  (1) 
-38.393790241503062

>  <r_i_glide_emodel_strain>  (1) 
0.087225322064966804

>  <r_i_glide_energy>  (1) 
-29.410340541730942

>  <r_i_glide_erotb>  (1) 
0.58490147517832547

>  <r_i_glide_esite>  (1) 
0

>  <r_i_glide_evdw>  (1) 
-22.850732492464104

>  <r_i_glide_gscore>  (1) 
-4.9403533749692974

>  <r_i_glide_gscore_strain>  (1) 
0

>  <r_i_glide_hbond>  (1) 
-0.15770896372002796

>  <r_i_glide_ligand_efficiency>  (1) 
-0.20584805729038738

>  <r_i_glide_ligand_efficiency_ln>  (1) 
-1.182453260674688

>  <r_i_glide_ligand_efficiency_sa>  (1) 
-0.59376854435135196

>  <r_i_glide_lipo>  (1) 
-1.8371884809492802

>  <r_i_glide_metal>  (1) 
-0

>  <r_i_glide_rewards>  (1) 
-1.403879573465084

>  <r_lp_Energy>  (1) 
18.733408999999998

>  <r_lp_tautomer_probability>  (1) 
1

>  <s_epik_cmdline>  (1) 
J2VwaWtfcHl0aG9uJywgJy1waHQnLCAnMS4wJywgJy1waCcsICc3LjQnLCAnLXRuJywgJzgnLCAnLW1hJywgJzUwMCcsICctaW1hZScsICc8aW5maWxlLm1hZT4nLCAnLW9tYWUnLCAnPG91dGZpbGUubWFlPic=

>  <s_epik_input>  (1) 
W09IXUMxMltDSF0oW0NIMl0xKVtDSDJdQyg9TylbQ0BASF0oT1tDSDNdKVtDQEBIXTJbQ0gyXVNjKFtjSF0zKVtjSF1bY0hdW2NIXWMzT0MoRikoRilG

>  <s_glide_docking_method>  (1) 
confgen

>  <s_i_glide_gridfile>  (1) 
gpcr_drd2_6luq_protein_autoprepared_prepared

>  <s_lp_Force_Field>  (1) 
S-OPLS

>  <s_lp_Variant>  (1) 
DiffSBDD_46-1

>  <s_m_source_file>  (1) 
generated_generic_title2_ligand_DiffSBDD_2026-06-23_prepared.sdf

>  <GenAI_Model>  (1) 
DiffSBDD

>  <Protein>  (1) 
generic_title2

$$$$
DiffSBDD_59
     RDKit          3D

  0  0  0  0  0  0  0  0  0  0999 V3000
M  V30 BEGIN CTAB
M  V30 COUNTS 69 72 0 0 1
M  V30 BEGIN ATOM
M  V30 1 C 7.328433 2.227523 -17.411025 0 CFG=2
M  V30 2 C 8.249979 -0.474542 -19.077859 0
M  V30 3 C 11.375367 7.697129 -5.184699 0
M  V30 4 P 7.377486 4.028696 -16.872744 0 CFG=2
M  V30 5 C 11.823977 6.851566 -2.985171 0
M  V30 6 O 7.175465 4.137634 -12.438908 0
M  V30 7 C 8.851924 6.086390 -11.036076 0
M  V30 8 C 10.156432 7.291314 -9.334173 0
M  V30 9 C 7.641135 1.312473 -16.202231 0
M  V30 10 C 10.796893 8.463088 -8.893527 0
M  V30 11 C 11.184902 8.602568 -7.544211 0
M  V30 12 C 6.895990 3.457976 -20.335219 0
M  V30 13 N 9.775435 7.175309 -10.691269 0
M  V30 14 C 8.234415 1.961246 -18.656973 0 CFG=1
M  V30 15 O 8.573823 -1.609822 -18.739768 0
M  V30 16 C 10.945326 7.563647 -6.610162 0
M  V30 17 O 6.608602 1.101217 -20.122656 0
M  V30 18 C 9.106215 4.468365 -16.520756 0
M  V30 19 C 11.371443 6.614931 -4.285599 0
M  V30 20 C 7.577972 -0.623607 -21.537849 0
M  V30 21 O 8.835156 0.666620 -18.605428 0
M  V30 22 C 8.947129 5.368224 -15.280543 0 CFG=2
M  V30 23 C 8.050060 6.399996 -12.317995 0 CFG=1
M  V30 24 C 12.213743 9.016377 -3.520498 0
M  V30 25 O 10.004045 5.190241 -14.384354 0
M  V30 26 C 9.908315 6.252104 -8.410887 0
M  V30 27 C 7.575673 5.126142 -13.053416 0
M  V30 28 C 7.562306 5.179082 -14.603353 0 CFG=2
M  V30 29 C 10.299851 6.390115 -7.066620 0
M  V30 30 N 6.975197 4.020628 -15.225690 0
M  V30 31 O 6.672007 5.021295 -17.730042 0
M  V30 32 N 11.802642 8.922220 -4.795482 0
M  V30 33 N 12.254857 8.061143 -2.581169 0
M  V30 34 C 7.581958 2.122994 -20.042944 0 CFG=1
M  V30 35 C 7.128934 -0.228450 -20.119748 0 CFG=1
M  V30 36 N 6.842312 7.172753 -11.985026 0 CHG=1
M  V30 37 H 6.292900 2.010818 -17.674537 0
M  V30 38 H 11.846035 6.057170 -2.253104 0
M  V30 39 H 8.138173 5.886814 -10.235926 0
M  V30 40 H 9.445801 5.181555 -11.176772 0
M  V30 41 H 7.541801 0.257528 -16.453046 0
M  V30 42 H 8.650174 1.468305 -15.823938 0
M  V30 43 H 6.943525 1.467972 -15.380674 0
M  V30 44 H 10.992912 9.263600 -9.589991 0
M  V30 45 H 11.678109 9.508632 -7.225735 0
M  V30 46 H 7.572151 4.297162 -20.173436 0
M  V30 47 H 6.567881 3.495651 -21.373952 0
M  V30 48 H 6.009353 3.593552 -19.716888 0
M  V30 49 H 9.824896 7.982933 -11.294676 0
M  V30 50 H 9.070736 2.657284 -18.603809 0
M  V30 51 H 9.578675 4.964505 -17.368947 0
M  V30 52 H 9.665600 3.564177 -16.299862 0
M  V30 53 H 11.040031 5.633657 -4.580809 0
M  V30 54 H 7.871966 -1.673260 -21.576756 0
M  V30 55 H 6.765524 -0.487409 -22.252450 0
M  V30 56 H 8.426527 -0.033089 -21.883076 0
M  V30 57 H 8.975378 6.390227 -15.617708 0
M  V30 58 H 8.666040 6.993708 -12.992452 0
M  V30 59 H 12.563197 9.989009 -3.212014 0
M  V30 60 H 10.823707 5.047708 -14.839941 0
M  V30 61 H 9.422705 5.342824 -8.725988 0
M  V30 62 H 6.953435 6.039902 -14.884244 0
M  V30 63 H 10.099825 5.590487 -6.382186 0
M  V30 64 H 7.271188 3.184819 -14.724505 0
M  V30 65 H 8.344127 1.979119 -20.810169 0
M  V30 66 H 6.297697 -0.879654 -19.848892 0
M  V30 67 H 6.653597 7.884869 -12.672227 0
M  V30 68 H 6.062665 6.536462 -11.908519 0
M  V30 69 H 6.974998 7.590211 -11.051645 0
M  V30 END ATOM
M  V30 BEGIN BOND
M  V30 1 1 4 1
M  V30 2 1 9 1
M  V30 3 1 10 8
M  V30 4 2 11 10
M  V30 5 1 13 7
M  V30 6 1 13 8
M  V30 7 1 14 1
M  V30 8 2 15 2
M  V30 9 1 16 3
M  V30 10 1 16 11
M  V30 11 1 18 4
M  V30 12 1 19 3
M  V30 13 2 19 5
M  V30 14 1 21 2
M  V30 15 1 21 14
M  V30 16 1 22 18
M  V30 17 1 23 7
M  V30 18 1 25 22
M  V30 19 2 26 8
M  V30 20 2 27 6
M  V30 21 1 27 23
M  V30 22 1 28 22
M  V30 23 1 28 27
M  V30 24 2 29 16
M  V30 25 1 29 26
M  V30 26 1 4 30 CFG=1
M  V30 27 1 30 28
M  V30 28 2 31 4
M  V30 29 2 32 3
M  V30 30 1 32 24
M  V30 31 1 33 5
M  V30 32 2 33 24
M  V30 33 1 34 12
M  V30 34 1 34 14
M  V30 35 1 34 17
M  V30 36 1 35 2
M  V30 37 1 35 17
M  V30 38 1 35 20
M  V30 39 1 36 23
M  V30 40 1 1 37 CFG=3
M  V30 41 1 38 5
M  V30 42 1 39 7
M  V30 43 1 40 7
M  V30 44 1 41 9
M  V30 45 1 42 9
M  V30 46 1 43 9
M  V30 47 1 44 10
M  V30 48 1 45 11
M  V30 49 1 46 12
M  V30 50 1 47 12
M  V30 51 1 48 12
M  V30 52 1 49 13
M  V30 53 1 14 50 CFG=3
M  V30 54 1 51 18
M  V30 55 1 52 18
M  V30 56 1 53 19
M  V30 57 1 54 20
M  V30 58 1 55 20
M  V30 59 1 56 20
M  V30 60 1 22 57 CFG=3
M  V30 61 1 23 58 CFG=3
M  V30 62 1 59 24
M  V30 63 1 60 25
M  V30 64 1 61 26
M  V30 65 1 28 62 CFG=1
M  V30 66 1 63 29
M  V30 67 1 64 30
M  V30 68 1 34 65 CFG=3
M  V30 69 1 35 66 CFG=1
M  V30 70 1 67 36
M  V30 71 1 68 36
M  V30 72 1 69 36
M  V30 END BOND
M  V30 END CTAB
M  END
>  <i_epik_Tot_Q>  (1) 
1

>  <i_epik_Tot_abs_Q>  (1) 
1

>  <i_i_glide_confnum>  (1) 
738

>  <i_i_glide_lignum>  (1) 
94

>  <i_i_glide_posenum>  (1) 
17

>  <i_i_glide_rotatable_bonds>  (1) 
9

>  <i_lp_mmshare_version>  (1) 
72125

>  <i_m_source_file_index>  (1) 
60

>  <i_f3d_flags>  (1) 
0

>  <num_sample>  (1) 
100

>  <b_lp_Chiralities_Consistent>  (1) 
1

>  <r_epik_Charging_Adjusted_Penalty>  (1) 
1.6146942296060567

>  <r_epik_Ionization_Penalty>  (1) 
0.80735470395218212

>  <r_epik_Ionization_Penalty_Charging>  (1) 
0.80734711480302834

>  <r_epik_Ionization_Penalty_Neutral>  (1) 
7.5891491537376816e-06

>  <r_epik_State_Penalty>  (1) 
0.80734711480302834

>  <r_glide_ring_energy>  (1) 
0.3356859326826036

>  <r_i_docking_score>  (1) 
-4.938480431946517

>  <r_i_glide_ecoul>  (1) 
-8.1304560776645971

>  <r_i_glide_eff_state_penalty>  (1) 
0.80734711480302834

>  <r_i_glide_einternal>  (1) 
16.754591342068139

>  <r_i_glide_emodel>  (1) 
-53.310279772283621

>  <r_i_glide_emodel_strain>  (1) 
1.6263188391382002

>  <r_i_glide_energy>  (1) 
-43.149927545499651

>  <r_i_glide_erotb>  (1) 
0.61110351075041747

>  <r_i_glide_esite>  (1) 
-0.17768691510839046

>  <r_i_glide_evdw>  (1) 
-35.019471467835054

>  <r_i_glide_gscore>  (1) 
-5.7458275467495454

>  <r_i_glide_gscore_strain>  (1) 
0

>  <r_i_glide_hbond>  (1) 
-0.27253642933597333

>  <r_i_glide_ligand_efficiency>  (1) 
-0.13718001199851437

>  <r_i_glide_ligand_efficiency_ln>  (1) 
-1.0774430079283082

>  <r_i_glide_ligand_efficiency_sa>  (1) 
-0.45295841962158651

>  <r_i_glide_lipo>  (1) 
-1.9649289682591331

>  <r_i_glide_metal>  (1) 
-0

>  <r_i_glide_rewards>  (1) 
-0.97123675975502277

>  <r_lp_Energy>  (1) 
58.708514999999998

>  <r_lp_tautomer_probability>  (1) 
0.99990000499974985

>  <s_epik_Chemistry_Notes>  (1) 
This compound has an ester and may undergo hydrolysis at high or low pH.

>  <s_epik_cmdline>  (1) 
J2VwaWtfcHl0aG9uJywgJy1waHQnLCAnMS4wJywgJy1waCcsICc3LjQnLCAnLXRuJywgJzgnLCAnLW1hJywgJzUwMCcsICctaW1hZScsICc8aW5maWxlLm1hZT4nLCAnLW9tYWUnLCAnPG91dGZpbGUubWFlPic=

>  <s_epik_input>  (1) 
W0NIM11bQ0BASF0xT1tDQEBIXShbQ0gzXSlbQ0BIXShPQzE9TylbQ0BASF0oW0NIM10pW1BAXTIoPU8pW0NIMl1bQ0BIXShbT0hdKVtDQEBIXShbTkhdMilDKD1PKVtDQEBIXShbTkgyXSlbQ0gyXVtOSF1jM1tjSF1bY0hdYyhbY0hdW2NIXTMpLWM0W2NIXVtjSF1uW2NIXW40

>  <s_glide_docking_method>  (1) 
confgen

>  <s_i_glide_gridfile>  (1) 
gpcr_drd2_6luq_protein_autoprepared_prepared

>  <s_lp_Force_Field>  (1) 
S-OPLS

>  <s_lp_Variant>  (1) 
DiffSBDD_59-2

>  <s_m_source_file>  (1) 
generated_generic_title2_ligand_DiffSBDD_2026-06-23_prepared.sdf

>  <GenAI_Model>  (1) 
DiffSBDD

>  <Protein>  (1) 
generic_title2

$$$$
DiffSBDD_35
     RDKit          3D

  0  0  0  0  0  0  0  0  0  0999 V3000
M  V30 BEGIN CTAB
M  V30 COUNTS 57 59 0 0 1
M  V30 BEGIN ATOM
M  V30 1 O 12.221548 6.537579 -16.224821 0
M  V30 2 N 11.396243 8.731640 -7.688369 0
M  V30 3 C 10.753382 7.218636 -5.390567 0
M  V30 4 C 9.428859 6.064968 -9.207605 0
M  V30 5 C 8.883069 5.447250 -18.755887 0
M  V30 6 C 11.385218 5.432735 -16.165021 0
M  V30 7 C 10.501046 8.055040 -10.163628 0
M  V30 8 C 6.447822 6.060676 -18.334321 0
M  V30 9 C 11.675188 9.186056 -6.444835 0
M  V30 10 Cl 4.975523 6.811899 -16.288238 0
M  V30 11 O 10.741258 5.274026 -17.393638 0
M  V30 12 C 6.759547 6.279244 -11.994675 0
M  V30 13 C 7.240352 5.240364 -16.110615 0
M  V30 14 C 10.440864 6.738736 -6.668824 0
M  V30 15 S 6.575490 4.755060 -14.471026 0
M  V30 16 C 7.461061 5.352160 -19.151590 0
M  V30 17 C 9.106464 6.077956 -10.717489 0 CFG=2
M  V30 18 C 9.418721 7.540595 -11.129298 0 CFG=2
M  V30 19 C 9.372037 5.221234 -17.532375 0
M  V30 20 C 6.975443 4.790057 -10.004349 0
M  V30 21 C 7.754732 5.416504 -11.165503 0 CFG=1
M  V30 22 N 10.469383 7.065783 -9.107164 0
M  V30 23 C 6.319295 5.990226 -17.001723 0
M  V30 24 O 7.486694 3.667504 -13.897923 0
M  V30 25 C 10.771557 7.527376 -7.797885 0
M  V30 26 O 7.375403 7.285358 -14.073876 0
M  V30 27 C 6.969950 6.273497 -13.509080 0
M  V30 28 C 12.883231 6.813188 -15.003321 0
M  V30 29 F 9.844829 7.590244 -12.385001 0
M  V30 30 C 8.550967 4.910632 -16.342366 0
M  V30 31 C 11.375407 8.469184 -5.273348 0
M  V30 32 H 10.512851 6.638107 -4.511520 0
M  V30 33 H 8.574658 6.381994 -8.608862 0
M  V30 34 H 9.766821 5.082346 -8.876859 0
M  V30 35 H 9.576593 5.663937 -19.556191 0
M  V30 36 H 10.719975 5.590374 -15.318157 0
M  V30 37 H 11.978416 4.535179 -15.985109 0
M  V30 38 H 10.257968 9.063068 -9.827648 0
M  V30 39 H 11.489408 8.058194 -10.623227 0
M  V30 40 H 5.718443 6.630287 -18.891964 0
M  V30 41 H 12.157268 10.150070 -6.385012 0
M  V30 42 H 6.688815 7.298099 -11.620008 0
M  V30 43 H 5.750344 5.886271 -11.868653 0
M  V30 44 H 9.956615 5.782446 -6.782255 0
M  V30 45 H 7.183141 4.301160 -19.235533 0
M  V30 46 H 7.392056 5.760012 -20.160421 0
M  V30 47 H 9.890808 5.478352 -11.182041 0
M  V30 48 H 8.555708 8.194461 -11.045159 0
M  V30 49 H 6.575489 5.590048 -9.388660 0
M  V30 50 H 6.136451 4.191093 -10.358981 0
M  V30 51 H 7.586589 4.147192 -9.377093 0
M  V30 52 H 8.049324 4.564821 -11.775441 0
M  V30 53 H 13.375407 7.779922 -15.088103 0
M  V30 54 H 12.188541 6.877177 -14.164131 0
M  V30 55 H 13.637099 6.056115 -14.785134 0
M  V30 56 H 9.054733 4.399943 -15.537581 0
M  V30 57 H 11.623478 8.871938 -4.302513 0
M  V30 END ATOM
M  V30 BEGIN BOND
M  V30 1 1 6 1
M  V30 2 2 9 2
M  V30 3 1 11 6
M  V30 4 1 14 3
M  V30 5 1 15 13
M  V30 6 1 16 5
M  V30 7 1 16 8
M  V30 8 1 17 4
M  V30 9 1 18 7
M  V30 10 1 18 17
M  V30 11 2 19 5
M  V30 12 1 19 11
M  V30 13 1 21 12
M  V30 14 1 21 17
M  V30 15 1 21 20
M  V30 16 1 22 4
M  V30 17 1 22 7
M  V30 18 2 23 8
M  V30 19 1 23 10
M  V30 20 1 23 13
M  V30 21 2 24 15
M  V30 22 1 25 2
M  V30 23 2 25 14
M  V30 24 1 25 22
M  V30 25 1 27 12
M  V30 26 1 15 27 CFG=1
M  V30 27 2 27 26
M  V30 28 1 28 1
M  V30 29 1 29 18
M  V30 30 2 30 13
M  V30 31 1 30 19
M  V30 32 2 31 3
M  V30 33 1 31 9
M  V30 34 1 32 3
M  V30 35 1 33 4
M  V30 36 1 34 4
M  V30 37 1 35 5
M  V30 38 1 36 6
M  V30 39 1 37 6
M  V30 40 1 38 7
M  V30 41 1 39 7
M  V30 42 1 40 8
M  V30 43 1 41 9
M  V30 44 1 42 12
M  V30 45 1 43 12
M  V30 46 1 44 14
M  V30 47 1 45 16
M  V30 48 1 46 16
M  V30 49 1 17 47 CFG=3
M  V30 50 1 18 48 CFG=3
M  V30 51 1 49 20
M  V30 52 1 50 20
M  V30 53 1 51 20
M  V30 54 1 21 52 CFG=3
M  V30 55 1 53 28
M  V30 56 1 54 28
M  V30 57 1 55 28
M  V30 58 1 56 30
M  V30 59 1 57 31
M  V30 END BOND
M  V30 END CTAB
M  END
>  <i_epik_Tot_Q>  (1) 
0

>  <i_epik_Tot_abs_Q>  (1) 
0

>  <i_i_glide_confnum>  (1) 
810

>  <i_i_glide_lignum>  (1) 
59

>  <i_i_glide_posenum>  (1) 
355

>  <i_i_glide_rotatable_bonds>  (1) 
9

>  <i_lp_mmshare_version>  (1) 
72125

>  <i_m_source_file_index>  (1) 
36

>  <i_f3d_flags>  (1) 
0

>  <num_sample>  (1) 
100

>  <b_lp_Chiralities_Consistent>  (1) 
1

>  <r_epik_Charging_Adjusted_Penalty>  (1) 
0.099723663867704454

>  <r_epik_Ionization_Penalty>  (1) 
0.0997236638898443

>  <r_epik_Ionization_Penalty_Charging>  (1) 
0

>  <r_epik_Ionization_Penalty_Neutral>  (1) 
0.0997236638898443

>  <r_epik_State_Penalty>  (1) 
0.099723663867704454

>  <r_glide_ring_energy>  (1) 
0

>  <r_i_docking_score>  (1) 
-4.93190120436544

>  <r_i_glide_ecoul>  (1) 
-2.4997750776766994

>  <r_i_glide_eff_state_penalty>  (1) 
0.099723663867704454

>  <r_i_glide_einternal>  (1) 
9.3510302558067764

>  <r_i_glide_emodel>  (1) 
-48.385453927902631

>  <r_i_glide_emodel_strain>  (1) 
1.7544130416952299

>  <r_i_glide_energy>  (1) 
-44.0442684175297

>  <r_i_glide_erotb>  (1) 
0.73452498433328617

>  <r_i_glide_esite>  (1) 
-0.055422458340662867

>  <r_i_glide_evdw>  (1) 
-41.544493339852998

>  <r_i_glide_gscore>  (1) 
-5.0316248682331448

>  <r_i_glide_gscore_strain>  (1) 
0

>  <r_i_glide_hbond>  (1) 
0

>  <r_i_glide_ligand_efficiency>  (1) 
-0.15909358723759484

>  <r_i_glide_ligand_efficiency_ln>  (1) 
-1.1122948662045382

>  <r_i_glide_ligand_efficiency_sa>  (1) 
-0.49977351686772276

>  <r_i_glide_lipo>  (1) 
-2.1661114414486162

>  <r_i_glide_metal>  (1) 
-0

>  <r_i_glide_rewards>  (1) 
-1.0924250241329974

>  <r_lp_Energy>  (1) 
24.480764999999998

>  <r_lp_tautomer_probability>  (1) 
1

>  <s_epik_Chemistry_Notes>  (1) 
This compound contains an acetal/aminal-like group ( X-CH(R)-Y where X, Y are N, S, or O) that may be acid/base labile, releasing an aldehyde.

>  <s_epik_cmdline>  (1) 
J2VwaWtfcHl0aG9uJywgJy1waHQnLCAnMS4wJywgJy1waCcsICc3LjQnLCAnLXRuJywgJzgnLCAnLW1hJywgJzUwMCcsICctaW1hZScsICc8aW5maWxlLm1hZT4nLCAnLW9tYWUnLCAnPG91dGZpbGUubWFlPic=

>  <s_epik_input>  (1) 
Q2xDMT1bQ0hdW0NIMl1bQ0hdPUMoT1tDSDJdT1tDSDNdKVtDSF09QzFbU0BAXSg9TylDKD1PKVtDSDJdW0NASF0oW0NIM10pW0NAQEhdMltDSDJdTihbQ0gyXVtDQEhdMkYpYzNuW2NIXVtjSF1bY0hdW2NIXTM=

>  <s_glide_docking_method>  (1) 
confgen

>  <s_i_glide_gridfile>  (1) 
gpcr_drd2_6luq_protein_autoprepared_prepared

>  <s_lp_Force_Field>  (1) 
S-OPLS

>  <s_lp_Variant>  (1) 
DiffSBDD_35-1

>  <s_m_source_file>  (1) 
generated_generic_title2_ligand_DiffSBDD_2026-06-23_prepared.sdf

>  <GenAI_Model>  (1) 
DiffSBDD

>  <Protein>  (1) 
generic_title2

$$$$
DiffSBDD_18
     RDKit          3D

  0  0  0  0  0  0  0  0  0  0999 V3000
M  V30 BEGIN CTAB
M  V30 COUNTS 38 39 0 0 1
M  V30 BEGIN ATOM
M  V30 1 C 11.945128 8.944370 -4.094188 0
M  V30 2 C 12.514185 8.758693 -2.822898 0
M  V30 3 O 10.669392 9.190232 -6.613220 0
M  V30 4 S 10.944538 7.802708 -9.362625 0
M  V30 5 C 7.368138 5.957920 -14.971397 0
M  V30 6 C 10.316830 7.190160 -10.951909 0
M  V30 7 N 8.975374 6.868393 -10.914458 0
M  V30 8 C 6.707288 7.031661 -14.088475 0
M  V30 9 C 10.779701 8.063394 -6.151826 0
M  V30 10 C 6.847666 5.844728 -11.685828 0 CFG=1
M  V30 11 C 11.375475 6.568092 -4.181920 0
M  V30 12 C 8.256499 6.308364 -12.011023 0 CFG=1
M  V30 13 N 10.402493 6.955768 -6.810439 0
M  V30 14 C 11.375430 7.849589 -4.785017 0
M  V30 15 C 11.939814 6.396581 -2.901157 0
M  V30 16 C 12.511438 7.489213 -2.228202 0
M  V30 17 O 11.056443 7.081199 -11.927362 0
M  V30 18 C 9.812695 7.003603 -8.152562 0
M  V30 19 C 7.052322 7.031874 -12.596708 0 CFG=1
M  V30 20 O 6.527676 4.606974 -12.284829 0
M  V30 21 H 11.950884 9.926212 -4.545797 0
M  V30 22 H 12.953669 9.590229 -2.303634 0
M  V30 23 H 7.108674 6.119904 -16.017619 0
M  V30 24 H 8.454948 5.990048 -14.905091 0
M  V30 25 H 7.039656 4.951187 -14.720720 0
M  V30 26 H 8.476698 7.051610 -10.045901 0
M  V30 27 H 5.622196 6.981969 -14.190565 0
M  V30 28 H 7.004084 7.998016 -14.488044 0
M  V30 29 H 6.430262 5.990225 -10.691409 0
M  V30 30 H 10.942702 5.721077 -4.691023 0
M  V30 31 H 8.831081 5.661502 -12.672053 0
M  V30 32 H 10.522719 6.054294 -6.375317 0
M  V30 33 H 11.938205 5.426832 -2.437206 0
M  V30 34 H 12.950136 7.352047 -1.251413 0
M  V30 35 H 8.875108 7.552020 -8.106023 0
M  V30 36 H 9.594044 5.980089 -8.459316 0
M  V30 37 H 6.801582 7.981902 -12.126426 0
M  V30 38 H 6.981481 3.923898 -11.815665 0
M  V30 END ATOM
M  V30 BEGIN BOND
M  V30 1 1 2 1
M  V30 2 1 6 4
M  V30 3 1 7 6
M  V30 4 1 8 5
M  V30 5 2 9 3
M  V30 6 1 12 7
M  V30 7 1 12 10
M  V30 8 1 13 9
M  V30 9 2 14 1
M  V30 10 1 14 9
M  V30 11 1 14 11
M  V30 12 2 15 11
M  V30 13 2 16 2
M  V30 14 1 16 15
M  V30 15 2 17 6
M  V30 16 1 18 4
M  V30 17 1 18 13
M  V30 18 1 19 8
M  V30 19 1 19 10
M  V30 20 1 19 12
M  V30 21 1 20 10
M  V30 22 1 21 1
M  V30 23 1 22 2
M  V30 24 1 23 5
M  V30 25 1 24 5
M  V30 26 1 25 5
M  V30 27 1 26 7
M  V30 28 1 27 8
M  V30 29 1 28 8
M  V30 30 1 10 29 CFG=1
M  V30 31 1 30 11
M  V30 32 1 12 31 CFG=3
M  V30 33 1 32 13
M  V30 34 1 33 15
M  V30 35 1 34 16
M  V30 36 1 35 18
M  V30 37 1 36 18
M  V30 38 1 19 37 CFG=1
M  V30 39 1 38 20
M  V30 END BOND
M  V30 END CTAB
M  END
>  <i_epik_Tot_Q>  (1) 
0

>  <i_epik_Tot_abs_Q>  (1) 
0

>  <i_i_glide_confnum>  (1) 
54

>  <i_i_glide_lignum>  (1) 
34

>  <i_i_glide_posenum>  (1) 
316

>  <i_i_glide_rotatable_bonds>  (1) 
9

>  <i_lp_mmshare_version>  (1) 
72125

>  <i_m_source_file_index>  (1) 
19

>  <i_f3d_flags>  (1) 
0

>  <num_sample>  (1) 
100

>  <b_lp_Chiralities_Consistent>  (1) 
1

>  <r_epik_Charging_Adjusted_Penalty>  (1) 
0

>  <r_epik_Ionization_Penalty>  (1) 
2.0525633642560989e-05

>  <r_epik_Ionization_Penalty_Charging>  (1) 
0

>  <r_epik_Ionization_Penalty_Neutral>  (1) 
2.0525633642560989e-05

>  <r_epik_State_Penalty>  (1) 
-0

>  <r_glide_ring_energy>  (1) 
0

>  <r_i_docking_score>  (1) 
-4.9310940754589767

>  <r_i_glide_ecoul>  (1) 
-8.352970648287009

>  <r_i_glide_eff_state_penalty>  (1) 
-0

>  <r_i_glide_einternal>  (1) 
5.0480628896923871

>  <r_i_glide_emodel>  (1) 
-51.744289619276387

>  <r_i_glide_emodel_strain>  (1) 
0.65744733061146832

>  <r_i_glide_energy>  (1) 
-41.346051056672621

>  <r_i_glide_erotb>  (1) 
2.5324251451788915

>  <r_i_glide_esite>  (1) 
-0.13177444727427678

>  <r_i_glide_evdw>  (1) 
-32.993080408385609

>  <r_i_glide_gscore>  (1) 
-4.9310940754589767

>  <r_i_glide_gscore_strain>  (1) 
0

>  <r_i_glide_hbond>  (1) 
-0.13217157294665322

>  <r_i_glide_ligand_efficiency>  (1) 
-0.24655470377294883

>  <r_i_glide_ligand_efficiency_ln>  (1) 
-1.2340902087198728

>  <r_i_glide_ligand_efficiency_sa>  (1) 
-0.66925243137563106

>  <r_i_glide_lipo>  (1) 
-2.1058386441371115

>  <r_i_glide_metal>  (1) 
-0

>  <r_i_glide_rewards>  (1) 
-2.1911349386174956

>  <r_lp_Energy>  (1) 
17.543890999999999

>  <r_lp_tautomer_probability>  (1) 
1

>  <s_epik_Chemistry_Notes>  (1) 
This compound contains an acetal/aminal-like group ( X-CH(R)-Y where X, Y are N, S, or O) that may be acid/base labile, releasing an aldehyde.

>  <s_epik_cmdline>  (1) 
J2VwaWtfcHl0aG9uJywgJy1waHQnLCAnMS4wJywgJy1waCcsICc3LjQnLCAnLXRuJywgJzgnLCAnLW1hJywgJzUwMCcsICctaW1hZScsICc8aW5maWxlLm1hZT4nLCAnLW9tYWUnLCAnPG91dGZpbGUubWFlPic=

>  <s_epik_input>  (1) 
W2NIXTFbY0hdW2NIXVtjSF1bY0hdYzFDKD1PKVtOSF1bQ0gyXVNDKD1PKVtOSF1bQ0BASF0oW0NIXTJbT0hdKVtDQEhdMltDSDJdW0NIM10=

>  <s_glide_docking_method>  (1) 
confgen

>  <s_i_glide_gridfile>  (1) 
gpcr_drd2_6luq_protein_autoprepared_prepared

>  <s_lp_Force_Field>  (1) 
S-OPLS

>  <s_lp_Variant>  (1) 
DiffSBDD_18-1

>  <s_m_source_file>  (1) 
generated_generic_title2_ligand_DiffSBDD_2026-06-23_prepared.sdf

>  <GenAI_Model>  (1) 
DiffSBDD

>  <Protein>  (1) 
generic_title2

$$$$
DiffSBDD_90
     RDKit          3D

  0  0  0  0  0  0  0  0  0  0999 V3000
M  V30 BEGIN CTAB
M  V30 COUNTS 80 84 0 0 1
M  V30 BEGIN ATOM
M  V30 1 C 7.363235 7.609786 -13.321129 0
M  V30 2 C 8.420501 6.547263 -13.054035 0 CFG=1
M  V30 3 C 10.032988 7.789855 -10.064571 0
M  V30 4 C 6.977948 5.457440 -18.424242 0 CFG=2
M  V30 5 C 10.756772 7.063800 -11.985229 0
M  V30 6 C 10.126712 8.317101 -8.735797 0 CFG=2
M  V30 7 C 6.636377 4.440389 -15.098369 0 CFG=2
M  V30 8 O 6.575121 7.206004 -15.413396 0 CHG=-1
M  V30 9 C 6.316818 6.891122 -14.177700 0 CFG=1
M  V30 10 C 5.686863 7.687560 -19.128907 0
M  V30 11 O 9.712911 6.628714 -19.437065 0
M  V30 12 C 9.376835 6.979523 -12.007023 0
M  V30 13 C 6.995644 4.655520 -11.674096 0 CFG=2
M  V30 14 O 9.761962 6.609247 -21.686745 0 CHG=-1
M  V30 15 O 5.757565 5.190256 -18.075349 0 CHG=-1
M  V30 16 C 7.809619 4.441179 -16.180530 0 CFG=2
M  V30 17 N 7.709008 5.590718 -17.130196 0 CHG=1
M  V30 18 N 6.591846 5.432825 -13.976364 0 CFG=2 CHG=1
M  V30 19 C 5.682008 6.224904 -21.820254 0
M  V30 20 C 7.968871 3.132527 -17.027664 0
M  V30 21 O 7.529745 5.005376 -10.414114 0
M  V30 22 O 8.574694 2.033827 -16.385990 0
M  V30 23 O 7.381828 1.555256 -12.785090 0
M  V30 24 C 8.015247 3.891940 -12.511259 0 CFG=1
M  V30 25 C 9.186047 6.640663 -20.576443 0
M  V30 26 C 6.484694 3.075723 -14.384635 0
M  V30 27 N 11.073156 7.590277 -10.764921 0
M  V30 28 O 5.129241 5.354720 -21.145198 0
M  V30 29 C 11.703753 8.583116 -8.839816 0
M  V30 30 N 8.975615 7.450166 -10.784897 0 CHG=1
M  V30 31 C 6.970641 6.802115 -19.215562 0 CFG=2
M  V30 32 O 10.372283 8.639385 -5.949748 0
M  V30 33 O 9.816084 7.333643 -7.765860 0
M  V30 34 C 9.382592 7.881154 -6.568689 0
M  V30 35 C 4.901496 6.966621 -22.900919 0
M  V30 36 C 7.661987 6.683650 -20.612598 0
M  V30 37 C 7.671210 2.754876 -13.460404 0 CFG=2
M  V30 38 C 11.364142 7.848657 -5.309477 0
M  V30 39 N 7.003384 6.630022 -21.721929 0
M  V30 40 C 12.318699 7.948781 -10.175740 0
M  V30 41 C 7.606449 5.295429 -12.916012 0 CFG=1
M  V30 42 H 6.894346 7.920339 -12.386139 0
M  V30 43 H 7.775343 8.508238 -13.780167 0
M  V30 44 H 8.975519 6.389906 -13.969178 0
M  V30 45 H 7.544514 4.750610 -19.027510 0
M  V30 46 H 11.500830 6.817693 -12.730892 0
M  V30 47 H 9.486588 9.190425 -8.707868 0
M  V30 48 H 5.734601 4.783453 -15.585242 0
M  V30 49 H 5.342351 7.081583 -13.729345 0
M  V30 50 H 5.782856 8.606387 -19.706195 0
M  V30 51 H 4.779180 7.183595 -19.454588 0
M  V30 52 H 5.495094 7.976645 -18.094695 0
M  V30 53 H 5.967576 4.293327 -11.645074 0
M  V30 54 H 8.745428 4.590879 -15.642822 0
M  V30 55 H 7.240298 6.336715 -16.580906 0
M  V30 56 H 8.644666 3.315692 -17.862676 0
M  V30 57 H 7.013122 2.818292 -17.450848 0
M  V30 58 H 6.972521 5.647760 -9.988340 0
M  V30 59 H 8.661953 1.328996 -17.012096 0
M  V30 60 H 7.340645 0.851484 -13.416151 0
M  V30 61 H 8.999381 3.780846 -12.056955 0
M  V30 62 H 5.580391 3.094104 -13.774752 0
M  V30 63 H 6.333707 2.265261 -15.095872 0
M  V30 64 H 11.853200 9.659912 -8.886351 0
M  V30 65 H 12.245016 8.237850 -7.961101 0
M  V30 66 H 7.649551 7.439942 -18.659101 0
M  V30 67 H 8.509491 8.512773 -6.745774 0
M  V30 68 H 9.060709 7.056916 -5.932817 0
M  V30 69 H 5.089613 6.517031 -23.875590 0
M  V30 70 H 3.830086 6.917688 -22.699008 0
M  V30 71 H 5.192887 8.016751 -22.942334 0
M  V30 72 H 8.572932 2.575484 -14.032812 0
M  V30 73 H 12.174929 8.492578 -4.970085 0
M  V30 74 H 10.973382 7.329510 -4.435715 0
M  V30 75 H 11.774495 7.098558 -5.985123 0
M  V30 76 H 12.899710 7.059307 -9.985002 0
M  V30 77 H 12.861527 8.666811 -10.790345 0
M  V30 78 H 8.000776 7.535616 -10.458456 0
M  V30 79 H 8.637630 5.905157 -17.372778 0
M  V30 80 H 5.742314 5.147132 -13.513459 0
M  V30 END ATOM
M  V30 BEGIN BOND
M  V30 1 1 2 1
M  V30 2 1 6 3
M  V30 3 1 9 1
M  V30 4 1 9 8
M  V30 5 1 12 2
M  V30 6 2 12 5
M  V30 7 1 15 4
M  V30 8 1 16 7
M  V30 9 1 17 4
M  V30 10 1 17 16
M  V30 11 1 18 7
M  V30 12 1 18 9
M  V30 13 1 20 16
M  V30 14 1 21 13
M  V30 15 1 22 20
M  V30 16 1 24 13
M  V30 17 2 25 11
M  V30 18 1 25 14
M  V30 19 1 26 7
M  V30 20 1 27 3
M  V30 21 1 27 5
M  V30 22 2 28 19
M  V30 23 1 29 6
M  V30 24 2 30 3
M  V30 25 1 30 12
M  V30 26 1 31 4
M  V30 27 1 31 10
M  V30 28 1 33 6
M  V30 29 1 34 32
M  V30 30 1 34 33
M  V30 31 1 35 19
M  V30 32 1 36 25
M  V30 33 1 36 31
M  V30 34 1 37 23
M  V30 35 1 37 24
M  V30 36 1 37 26
M  V30 37 1 38 32
M  V30 38 1 39 19
M  V30 39 2 39 36
M  V30 40 1 40 27
M  V30 41 1 40 29
M  V30 42 1 41 2 CFG=1
M  V30 43 1 41 13
M  V30 44 1 41 18
M  V30 45 1 41 24
M  V30 46 1 42 1
M  V30 47 1 43 1
M  V30 48 1 2 44 CFG=3
M  V30 49 1 4 45 CFG=3
M  V30 50 1 46 5
M  V30 51 1 6 47 CFG=3
M  V30 52 1 7 48 CFG=3
M  V30 53 1 9 49 CFG=1
M  V30 54 1 50 10
M  V30 55 1 51 10
M  V30 56 1 52 10
M  V30 57 1 13 53 CFG=1
M  V30 58 1 16 54 CFG=1
M  V30 59 1 55 17
M  V30 60 1 56 20
M  V30 61 1 57 20
M  V30 62 1 58 21
M  V30 63 1 59 22
M  V30 64 1 60 23
M  V30 65 1 24 61 CFG=1
M  V30 66 1 62 26
M  V30 67 1 63 26
M  V30 68 1 64 29
M  V30 69 1 65 29
M  V30 70 1 31 66 CFG=1
M  V30 71 1 67 34
M  V30 72 1 68 34
M  V30 73 1 69 35
M  V30 74 1 70 35
M  V30 75 1 71 35
M  V30 76 1 37 72 CFG=3
M  V30 77 1 73 38
M  V30 78 1 74 38
M  V30 79 1 75 38
M  V30 80 1 76 40
M  V30 81 1 77 40
M  V30 82 1 78 30
M  V30 83 1 79 17
M  V30 84 1 18 80 CFG=1
M  V30 END BOND
M  V30 END CTAB
M  END
>  <i_epik_Tot_Q>  (1) 
0

>  <i_epik_Tot_abs_Q>  (1) 
6

>  <i_i_glide_confnum>  (1) 
564

>  <i_i_glide_lignum>  (1) 
167

>  <i_i_glide_posenum>  (1) 
122

>  <i_i_glide_rotatable_bonds>  (1) 
15

>  <i_lp_mmshare_version>  (1) 
72125

>  <i_m_source_file_index>  (1) 
91

>  <i_f3d_flags>  (1) 
0

>  <num_sample>  (1) 
100

>  <b_lp_Chiralities_Consistent>  (1) 
1

>  <r_epik_Charging_Adjusted_Penalty>  (1) 
0.35079833336250127

>  <r_epik_Ionization_Penalty>  (1) 
1.4702178244609605

>  <r_epik_Ionization_Penalty_Charging>  (1) 
0.099885809697688246

>  <r_epik_Ionization_Penalty_Neutral>  (1) 
1.3703320147632723

>  <r_epik_State_Penalty>  (1) 
0.25091252366481304

>  <r_glide_ring_energy>  (1) 
0

>  <r_i_docking_score>  (1) 
-4.9293404742707327

>  <r_i_glide_ecoul>  (1) 
-8.674373360043429

>  <r_i_glide_eff_state_penalty>  (1) 
0.25091252366481304

>  <r_i_glide_einternal>  (1) 
16.344406714544117

>  <r_i_glide_emodel>  (1) 
-42.506839007271253

>  <r_i_glide_emodel_strain>  (1) 
1.0965755731498916

>  <r_i_glide_energy>  (1) 
-37.431616884876668

>  <r_i_glide_erotb>  (1) 
0.57888693115673628

>  <r_i_glide_esite>  (1) 
-0.22906613864190423

>  <r_i_glide_evdw>  (1) 
-28.757243524833239

>  <r_i_glide_gscore>  (1) 
-5.1802529979355461

>  <r_i_glide_gscore_strain>  (1) 
0

>  <r_i_glide_hbond>  (1) 
-0.25690992436297416

>  <r_i_glide_ligand_efficiency>  (1) 
-0.12022781644562763

>  <r_i_glide_ligand_efficiency_ln>  (1) 
-1.0457759857095572

>  <r_i_glide_ligand_efficiency_sa>  (1) 
-0.41457162944138359

>  <r_i_glide_lipo>  (1) 
-1.7192953607818597

>  <r_i_glide_metal>  (1) 
-0

>  <r_i_glide_rewards>  (1) 
-0.8148503250573681

>  <r_lp_Energy>  (1) 
74.620350999999999

>  <r_lp_tautomer_probability>  (1) 
1

>  <s_epik_Chemistry_Notes>  (1) 
This compound has an imine and may undergo hydrolysis. This compound contains an acetal/aminal-like group ( X-CH(R)-Y where X, Y are N, S, or O) that may be acid/base labile, releasing an aldehyde.

>  <s_epik_cmdline>  (1) 
J2VwaWtfcHl0aG9uJywgJy1waHQnLCAnMS4wJywgJy1waCcsICc3LjQnLCAnLXRuJywgJzgnLCAnLW1hJywgJzUwMCcsICctaW1hZScsICc8aW5maWxlLm1hZT4nLCAnLW9tYWUnLCAnPG91dGZpbGUubWFlPic=

>  <s_epik_input>  (1) 
W0NIM11PW0NIMl1PW0NASF0xW0NIMl1bQ0gyXW4oYzEyKVtjSF1jKG4yKVtDQEBIXTNbQ0gyXVtDQEBIXShbT0hdKU4oW0NAQF0zNDUpW0NASF0oW0NIMl1bQ0BIXShbT0hdKVtDQEBIXTVbQ0BIXTRbT0hdKVtDQEBIXShbQ0gyXVtPSF0pW05IXVtDQEBIXShbT0hdKVtDQEhdKFtDSDNdKUMoXEMoPU8pW09IXSk9Ti9DKD1PKVtDSDNd

>  <s_glide_docking_method>  (1) 
confgen

>  <s_i_glide_gridfile>  (1) 
gpcr_drd2_6luq_protein_autoprepared_prepared

>  <s_lp_Force_Field>  (1) 
S-OPLS

>  <s_lp_Variant>  (1) 
DiffSBDD_90-2

>  <s_m_source_file>  (1) 
generated_generic_title2_ligand_DiffSBDD_2026-06-23_prepared.sdf

>  <GenAI_Model>  (1) 
DiffSBDD

>  <Protein>  (1) 
generic_title2

$$$$
DiffSBDD_23
     RDKit          3D

  0  0  0  0  0  0  0  0  0  0999 V3000
M  V30 BEGIN CTAB
M  V30 COUNTS 69 71 0 0 1
M  V30 BEGIN ATOM
M  V30 1 O 10.834019 1.832019 -18.846266 0
M  V30 2 C 14.935880 -0.218654 -18.527293 0 CFG=2
M  V30 3 C 10.929689 8.390166 -9.472989 0
M  V30 4 C 7.468087 6.723616 -12.063320 0 CFG=1
M  V30 5 C 8.779637 5.977092 -12.358834 0 CFG=1
M  V30 6 C 5.877076 6.387134 -15.614948 0
M  V30 7 F 15.375393 0.738520 -17.673314 0
M  V30 8 C 9.375500 6.129651 -8.828156 0
M  V30 9 C 11.637014 4.011607 -18.485048 0
M  V30 10 C 10.533564 7.498515 -10.489404 0
M  V30 11 C 12.480049 0.176600 -17.959072 0
M  V30 12 C 5.565798 4.778844 -13.730560 0
M  V30 13 O 9.368390 5.474085 -11.154113 0
M  V30 14 F 13.614988 1.362812 -19.649466 0
M  V30 15 O 15.864039 -0.409768 -19.572943 0
M  V30 16 F 9.423772 5.614025 -17.193330 0
M  V30 17 C 6.704475 7.032126 -13.357879 0 CFG=2
M  V30 18 C 13.546097 0.163614 -19.070435 0 CFG=1
M  V30 19 C 8.683982 2.159405 -16.596552 0
M  V30 20 N 7.880624 5.261297 -14.583815 0
M  V30 21 F 10.404187 4.473354 -15.633216 0
M  V30 22 C 10.548608 8.153836 -8.137946 0
M  V30 23 C 8.023104 4.364070 -15.754464 0 CFG=2
M  V30 24 C 10.870372 2.847143 -17.841467 0 CFG=1
M  V30 25 C 9.439374 3.247137 -17.387298 0 CFG=2
M  V30 26 C 6.531915 5.829863 -14.323618 0
M  V30 27 C 9.772827 7.025146 -7.815923 0
M  V30 28 C 9.753277 6.364135 -10.169899 0
M  V30 29 O 8.618733 5.039376 -8.510833 0
M  V30 30 F 7.375321 7.990195 -13.994406 0
M  V30 31 C 7.830807 2.856503 -15.522909 0
M  V30 32 O 6.639187 5.990309 -11.185060 0
M  V30 33 C 8.560261 4.814455 -13.348335 0
M  V30 34 C 9.376409 4.489802 -16.478280 0
M  V30 35 C 11.041643 0.485800 -18.425507 0
M  V30 36 H 14.864722 -1.160087 -17.983104 0
M  V30 37 H 11.526454 9.254564 -9.717834 0
M  V30 38 H 7.696516 7.674127 -11.585004 0
M  V30 39 H 9.470899 6.667396 -12.836788 0
M  V30 40 H 5.029721 7.032037 -15.380244 0
M  V30 41 H 6.576058 6.979671 -16.207272 0
M  V30 42 H 5.476376 5.598274 -16.251341 0
M  V30 43 H 11.808031 4.821592 -17.777505 0
M  V30 44 H 12.616702 3.685007 -18.833298 0
M  V30 45 H 11.095584 4.417454 -19.339818 0
M  V30 46 H 10.831801 7.680285 -11.508844 0
M  V30 47 H 12.789774 0.858111 -17.169270 0
M  V30 48 H 12.466313 -0.809215 -17.496008 0
M  V30 49 H 4.575676 5.203245 -13.584998 0
M  V30 50 H 5.453799 3.933605 -14.385015 0
M  V30 51 H 5.877621 4.354621 -12.780750 0
M  V30 52 H 16.173833 -1.306567 -19.509798 0
M  V30 53 H 5.735159 7.468803 -13.112210 0
M  V30 54 H 13.252354 -0.533370 -19.855050 0
M  V30 55 H 9.375247 1.483654 -16.103323 0
M  V30 56 H 8.069174 1.552384 -17.262990 0
M  V30 57 H 10.852314 8.838824 -7.360386 0
M  V30 58 H 7.307268 4.637009 -16.523980 0
M  V30 59 H 11.440432 2.527147 -16.971384 0
M  V30 60 H 8.847849 3.467779 -18.277375 0
M  V30 61 H 9.479495 6.846750 -6.792074 0
M  V30 62 H 8.086789 5.182815 -7.742394 0
M  V30 63 H 8.171270 2.534134 -14.540416 0
M  V30 64 H 6.783858 2.567911 -15.607452 0
M  V30 65 H 6.609039 6.512537 -10.377301 0
M  V30 66 H 9.535322 4.388938 -13.568181 0
M  V30 67 H 7.997417 4.017995 -12.864753 0
M  V30 68 H 10.334637 0.224841 -17.640793 0
M  V30 69 H 10.793567 -0.160470 -19.267362 0
M  V30 END ATOM
M  V30 BEGIN BOND
M  V30 1 1 5 4
M  V30 2 1 7 2
M  V30 3 1 10 3
M  V30 4 1 13 5
M  V30 5 1 15 2
M  V30 6 1 17 4
M  V30 7 1 18 2
M  V30 8 1 18 11
M  V30 9 1 18 14
M  V30 10 2 22 3
M  V30 11 1 23 20
M  V30 12 1 24 1
M  V30 13 1 24 9
M  V30 14 1 25 19
M  V30 15 1 25 24
M  V30 16 1 26 6
M  V30 17 1 26 12
M  V30 18 1 26 17
M  V30 19 1 26 20
M  V30 20 2 27 8
M  V30 21 1 27 22
M  V30 22 1 28 8
M  V30 23 2 28 10
M  V30 24 1 28 13
M  V30 25 1 29 8
M  V30 26 1 30 17
M  V30 27 1 31 19
M  V30 28 1 31 23
M  V30 29 1 32 4
M  V30 30 1 33 5
M  V30 31 1 33 20
M  V30 32 1 34 16
M  V30 33 1 34 21
M  V30 34 1 34 23
M  V30 35 1 34 25
M  V30 36 1 35 1
M  V30 37 1 35 11
M  V30 38 1 2 36 CFG=1
M  V30 39 1 37 3
M  V30 40 1 4 38 CFG=1
M  V30 41 1 5 39 CFG=3
M  V30 42 1 40 6
M  V30 43 1 41 6
M  V30 44 1 42 6
M  V30 45 1 43 9
M  V30 46 1 44 9
M  V30 47 1 45 9
M  V30 48 1 46 10
M  V30 49 1 47 11
M  V30 50 1 48 11
M  V30 51 1 49 12
M  V30 52 1 50 12
M  V30 53 1 51 12
M  V30 54 1 52 15
M  V30 55 1 17 53 CFG=1
M  V30 56 1 18 54 CFG=3
M  V30 57 1 55 19
M  V30 58 1 56 19
M  V30 59 1 57 22
M  V30 60 1 23 58 CFG=3
M  V30 61 1 24 59 CFG=1
M  V30 62 1 25 60 CFG=3
M  V30 63 1 61 27
M  V30 64 1 62 29
M  V30 65 1 63 31
M  V30 66 1 64 31
M  V30 67 1 65 32
M  V30 68 1 66 33
M  V30 69 1 67 33
M  V30 70 1 68 35
M  V30 71 1 69 35
M  V30 END BOND
M  V30 END CTAB
M  END
>  <i_epik_Tot_Q>  (1) 
0

>  <i_epik_Tot_abs_Q>  (1) 
0

>  <i_i_glide_confnum>  (1) 
1507

>  <i_i_glide_lignum>  (1) 
41

>  <i_i_glide_posenum>  (1) 
321

>  <i_i_glide_rotatable_bonds>  (1) 
12

>  <i_lp_mmshare_version>  (1) 
72125

>  <i_m_source_file_index>  (1) 
24

>  <i_f3d_flags>  (1) 
0

>  <num_sample>  (1) 
100

>  <b_lp_Chiralities_Consistent>  (1) 
1

>  <r_epik_Charging_Adjusted_Penalty>  (1) 
0.0080743036446832648

>  <r_epik_Ionization_Penalty>  (1) 
0.010611315271180252

>  <r_epik_Ionization_Penalty_Charging>  (1) 
0

>  <r_epik_Ionization_Penalty_Neutral>  (1) 
0.010611315271180252

>  <r_epik_State_Penalty>  (1) 
0.0080743036446832648

>  <r_glide_ring_energy>  (1) 
0

>  <r_i_docking_score>  (1) 
-4.9229001609927892

>  <r_i_glide_ecoul>  (1) 
-8.0111902822992676

>  <r_i_glide_eff_state_penalty>  (1) 
0.0080743036446832648

>  <r_i_glide_einternal>  (1) 
18.107229725138517

>  <r_i_glide_emodel>  (1) 
-38.788929900703295

>  <r_i_glide_emodel_strain>  (1) 
1.7943126577903001

>  <r_i_glide_energy>  (1) 
-40.075399732120268

>  <r_i_glide_erotb>  (1) 
0.70487652011910051

>  <r_i_glide_esite>  (1) 
-0.012218248461045012

>  <r_i_glide_evdw>  (1) 
-32.064209449821

>  <r_i_glide_gscore>  (1) 
-4.9309744646374725

>  <r_i_glide_gscore_strain>  (1) 
0

>  <r_i_glide_hbond>  (1) 
-0.45599999999999996

>  <r_i_glide_ligand_efficiency>  (1) 
-0.14065429031407969

>  <r_i_glide_ligand_efficiency_ln>  (1) 
-1.0806858432203315

>  <r_i_glide_ligand_efficiency_sa>  (1) 
-0.4600895104298714

>  <r_i_glide_lipo>  (1) 
-1.6143437603320441

>  <r_i_glide_metal>  (1) 
-0

>  <r_i_glide_rewards>  (1) 
-0.74839996112754525

>  <r_lp_Energy>  (1) 
44.015346999999998

>  <r_lp_tautomer_probability>  (1) 
1

>  <s_epik_cmdline>  (1) 
J2VwaWtfcHl0aG9uJywgJy1waHQnLCAnMS4wJywgJy1waCcsICc3LjQnLCAnLXRuJywgJzgnLCAnLW1hJywgJzUwMCcsICctaW1hZScsICc8aW5maWxlLm1hZT4nLCAnLW9tYWUnLCAnPG91dGZpbGUubWFlPic=

>  <s_epik_input>  (1) 
RltDQEhdKFtPSF0pW0NASF0oRilbQ0gyXVtDSDJdT1tDQEBIXShbQ0gzXSlbQ0BIXTFbQ0gyXVtDSDJdW0NASF0oQzEoRilGKU4yW0NIMl1bQ0BASF0oW0NASF0oW09IXSlbQ0BASF0oRilDMihbQ0gzXSlbQ0gzXSlPW0NAQEhdM1tDSF09W0NIXVtDSF09W0NIXUMzPU8=

>  <s_glide_docking_method>  (1) 
confgen

>  <s_i_glide_gridfile>  (1) 
gpcr_drd2_6luq_protein_autoprepared_prepared

>  <s_lp_Force_Field>  (1) 
S-OPLS

>  <s_lp_Variant>  (1) 
DiffSBDD_23-1

>  <s_m_source_file>  (1) 
generated_generic_title2_ligand_DiffSBDD_2026-06-23_prepared.sdf

>  <GenAI_Model>  (1) 
DiffSBDD

>  <Protein>  (1) 
generic_title2

$$$$
DiffSBDD_45
     RDKit          3D

  0  0  0  0  0  0  0  0  0  0999 V3000
M  V30 BEGIN CTAB
M  V30 COUNTS 68 71 0 0 1
M  V30 BEGIN ATOM
M  V30 1 C 7.916016 3.401325 -14.082962 0 CFG=2
M  V30 2 C 8.138651 3.641219 -18.449225 0
M  V30 3 C 10.426235 8.570971 -6.773116 0 CFG=2
M  V30 4 C 7.266042 3.668185 -12.727135 0
M  V30 5 C 7.395361 4.267738 -15.259199 0 CFG=2
M  V30 6 C 11.772553 5.991200 -5.388410 0
M  V30 7 C 7.264651 4.615496 -10.372345 0
M  V30 8 O 7.784716 2.028823 -14.461784 0
M  V30 9 C 8.552032 4.729322 -16.181278 0
M  V30 10 N 11.375610 8.472904 -5.658411 0
M  V30 11 C 12.257446 7.767757 -3.577891 0
M  V30 12 C 10.253995 6.662864 -10.297531 0
M  V30 13 C 9.331305 5.746926 -10.644491 0
M  V30 14 C 8.311336 5.937779 -8.545781 0
M  V30 15 C 12.425056 9.276636 -3.720275 0
M  V30 16 N 8.330050 5.383130 -9.809480 0
M  V30 17 O 12.583163 7.604237 -8.101971 0
M  V30 18 C 11.371659 7.328078 -4.753390 0 CFG=2
M  V30 19 N 10.227057 7.282115 -9.027217 0
M  V30 20 O 6.712161 5.425453 -14.812959 0
M  V30 21 C 11.491422 9.681564 -4.855358 0
M  V30 22 C 6.943832 5.816390 -17.903696 0
M  V30 23 C 8.203320 4.964087 -17.667936 0
M  V30 24 C 9.265746 5.042616 -11.960930 0
M  V30 25 C 8.395459 1.090950 -13.575189 0
M  V30 26 C 9.222647 7.561836 -6.804590 0
M  V30 27 C 7.883057 4.382030 -11.761579 0
M  V30 28 O 11.375462 9.566978 -9.184941 0
M  V30 29 S 11.350409 8.347549 -8.365356 0
M  V30 30 C 9.211100 6.863308 -8.150629 0
M  V30 31 C 5.896168 3.062913 -12.527584 0
M  V30 32 H 8.975379 3.605627 -13.981383 0
M  V30 33 H 7.328777 3.001663 -18.096465 0
M  V30 34 H 7.984395 3.816849 -19.515122 0
M  V30 35 H 9.068548 3.078397 -18.353117 0
M  V30 36 H 10.018275 9.578239 -6.798811 0
M  V30 37 H 6.676681 3.673751 -15.820752 0
M  V30 38 H 12.050675 5.298925 -4.598019 0
M  V30 39 H 10.924245 5.590224 -5.926197 0
M  V30 40 H 12.575255 5.990299 -6.116001 0
M  V30 41 H 6.377239 5.246632 -10.451599 0
M  V30 42 H 7.016412 3.717809 -9.811517 0
M  V30 43 H 9.006641 5.630285 -15.763359 0
M  V30 44 H 9.350748 3.986410 -16.156520 0
M  V30 45 H 13.232340 7.281176 -3.584995 0
M  V30 46 H 11.786517 7.507265 -2.629518 0
M  V30 47 H 11.059709 6.986268 -10.938787 0
M  V30 48 H 7.502530 5.590334 -7.920473 0
M  V30 49 H 13.450900 9.513732 -3.996771 0
M  V30 50 H 12.198634 9.808833 -2.796792 0
M  V30 51 H 10.364283 7.190204 -4.385000 0
M  V30 52 H 6.419378 5.905167 -15.571959 0
M  V30 53 H 11.888338 10.511049 -5.442027 0
M  V30 54 H 10.528251 9.989029 -4.458093 0
M  V30 55 H 6.038876 5.283760 -17.611105 0
M  V30 56 H 6.975865 6.752468 -17.347298 0
M  V30 57 H 6.842940 6.067952 -18.960209 0
M  V30 58 H 9.040696 5.524488 -18.085657 0
M  V30 59 H 10.068827 4.311451 -12.053805 0
M  V30 60 H 9.271017 5.744723 -12.794414 0
M  V30 61 H 8.573921 0.153052 -14.101750 0
M  V30 62 H 9.351515 1.441481 -13.184746 0
M  V30 63 H 7.755926 0.857815 -12.724752 0
M  V30 64 H 8.293302 8.122604 -6.709240 0
M  V30 65 H 9.177206 6.812570 -6.023112 0
M  V30 66 H 5.961575 2.008871 -12.266914 0
M  V30 67 H 5.358246 3.590313 -11.744141 0
M  V30 68 H 5.307553 3.159823 -13.437641 0
M  V30 END ATOM
M  V30 BEGIN BOND
M  V30 1 1 4 1
M  V30 2 1 5 1
M  V30 3 1 8 1
M  V30 4 1 9 5
M  V30 5 1 10 3
M  V30 6 2 13 12
M  V30 7 1 15 11
M  V30 8 1 16 7
M  V30 9 1 16 13
M  V30 10 1 16 14
M  V30 11 1 18 6
M  V30 12 1 18 10
M  V30 13 1 18 11
M  V30 14 1 19 12
M  V30 15 1 20 5
M  V30 16 1 21 10
M  V30 17 1 21 15
M  V30 18 1 23 2
M  V30 19 1 23 9
M  V30 20 1 23 22
M  V30 21 1 24 13
M  V30 22 1 25 8
M  V30 23 1 26 3
M  V30 24 2 27 4
M  V30 25 1 27 7
M  V30 26 1 27 24
M  V30 27 1 29 3
M  V30 28 2 29 17
M  V30 29 1 29 19
M  V30 30 2 29 28
M  V30 31 2 30 14
M  V30 32 1 30 19
M  V30 33 1 30 26
M  V30 34 1 31 4
M  V30 35 1 1 32 CFG=1
M  V30 36 1 33 2
M  V30 37 1 34 2
M  V30 38 1 35 2
M  V30 39 1 3 36 CFG=3
M  V30 40 1 5 37 CFG=3
M  V30 41 1 38 6
M  V30 42 1 39 6
M  V30 43 1 40 6
M  V30 44 1 41 7
M  V30 45 1 42 7
M  V30 46 1 43 9
M  V30 47 1 44 9
M  V30 48 1 45 11
M  V30 49 1 46 11
M  V30 50 1 47 12
M  V30 51 1 48 14
M  V30 52 1 49 15
M  V30 53 1 50 15
M  V30 54 1 18 51 CFG=1
M  V30 55 1 52 20
M  V30 56 1 53 21
M  V30 57 1 54 21
M  V30 58 1 55 22
M  V30 59 1 56 22
M  V30 60 1 57 22
M  V30 61 1 58 23
M  V30 62 1 59 24
M  V30 63 1 60 24
M  V30 64 1 61 25
M  V30 65 1 62 25
M  V30 66 1 63 25
M  V30 67 1 64 26
M  V30 68 1 65 26
M  V30 69 1 66 31
M  V30 70 1 67 31
M  V30 71 1 68 31
M  V30 END BOND
M  V30 END CTAB
M  END
>  <i_epik_Tot_Q>  (1) 
0

>  <i_epik_Tot_abs_Q>  (1) 
0

>  <i_i_glide_confnum>  (1) 
94

>  <i_i_glide_lignum>  (1) 
73

>  <i_i_glide_posenum>  (1) 
291

>  <i_i_glide_rotatable_bonds>  (1) 
7

>  <i_lp_mmshare_version>  (1) 
72125

>  <i_m_source_file_index>  (1) 
46

>  <i_f3d_flags>  (1) 
0

>  <num_sample>  (1) 
100

>  <b_lp_Chiralities_Consistent>  (1) 
1

>  <r_epik_Charging_Adjusted_Penalty>  (1) 
5.5386030856760706e-14

>  <r_epik_Ionization_Penalty>  (1) 
0.0003901755545231811

>  <r_epik_Ionization_Penalty_Charging>  (1) 
5.5386030856760706e-14

>  <r_epik_Ionization_Penalty_Neutral>  (1) 
0.00039017555446779507

>  <r_epik_State_Penalty>  (1) 
-0

>  <r_glide_ring_energy>  (1) 
0

>  <r_i_docking_score>  (1) 
-4.9182234911657261

>  <r_i_glide_ecoul>  (1) 
-1.2141184695341747

>  <r_i_glide_eff_state_penalty>  (1) 
-0

>  <r_i_glide_einternal>  (1) 
18.668325945195104

>  <r_i_glide_emodel>  (1) 
-18.399601110176484

>  <r_i_glide_emodel_strain>  (1) 
4.1122164867966831

>  <r_i_glide_energy>  (1) 
-30.919946322225069

>  <r_i_glide_erotb>  (1) 
0.39335991316148761

>  <r_i_glide_esite>  (1) 
-0.15360828315935979

>  <r_i_glide_evdw>  (1) 
-29.705827852690895

>  <r_i_glide_gscore>  (1) 
-4.9182234911657261

>  <r_i_glide_gscore_strain>  (1) 
0.028054121699170764

>  <r_i_glide_hbond>  (1) 
0

>  <r_i_glide_ligand_efficiency>  (1) 
-0.15865237068276536

>  <r_i_glide_ligand_efficiency_ln>  (1) 
-1.1092101227064337

>  <r_i_glide_ligand_efficiency_sa>  (1) 
-0.49838748771886665

>  <r_i_glide_lipo>  (1) 
-2.7569962684896407

>  <r_i_glide_metal>  (1) 
-0

>  <r_i_glide_rewards>  (1) 
-0.76162381131271295

>  <r_lp_Energy>  (1) 
35.233378000000002

>  <r_lp_tautomer_probability>  (1) 
1

>  <s_epik_Chemistry_Notes>  (1) 
This compound has an imine and may undergo hydrolysis.

>  <s_epik_cmdline>  (1) 
J2VwaWtfcHl0aG9uJywgJy1waHQnLCAnMS4wJywgJy1waCcsICc3LjQnLCAnLXRuJywgJzgnLCAnLW1hJywgJzUwMCcsICctaW1hZScsICc8aW5maWxlLm1hZT4nLCAnLW9tYWUnLCAnPG91dGZpbGUubWFlPic=

>  <s_epik_input>  (1) 
W0NIM11bQ0hdKFtDSDNdKVtDSDJdW0NASF0oW09IXSlbQ0BIXShPW0NIM10pL0MoW0NIM10pPUMoW0NIMl0xKS9bQ0gyXU4oQzEyKVtDSF09QzNOKFtDSF09MilTKD1PKSg9TylbQ0BASF0oW0NIMl0zKU40W0NAQEhdKFtDSDNdKVtDSDJdW0NIMl1bQ0gyXTQ=

>  <s_glide_docking_method>  (1) 
confgen

>  <s_i_glide_gridfile>  (1) 
gpcr_drd2_6luq_protein_autoprepared_prepared

>  <s_lp_Force_Field>  (1) 
S-OPLS

>  <s_lp_Variant>  (1) 
DiffSBDD_45-1

>  <s_m_source_file>  (1) 
generated_generic_title2_ligand_DiffSBDD_2026-06-23_prepared.sdf

>  <GenAI_Model>  (1) 
DiffSBDD

>  <Protein>  (1) 
generic_title2

$$$$
DiffSBDD_27
     RDKit          3D

  0  0  0  0  0  0  0  0  0  0999 V3000
M  V30 BEGIN CTAB
M  V30 COUNTS 81 86 0 0 1
M  V30 BEGIN ATOM
M  V30 1 O 10.738866 7.739444 -6.009427 0
M  V30 2 C 6.889457 5.792180 -12.702583 0
M  V30 3 C 11.175102 1.651314 -18.850179 0
M  V30 4 C 5.504181 3.612538 -19.900079 0
M  V30 5 C 9.775361 6.633854 -8.868741 0
M  V30 6 C 6.737255 0.469608 -18.552529 0 CFG=1
M  V30 7 O 5.997653 1.691747 -18.597238 0
M  V30 8 C 8.232798 0.777529 -18.190974 0 CFG=1
M  V30 9 C 5.799501 2.848720 -13.326855 0
M  V30 10 O 8.489905 4.635740 -15.286607 0
M  V30 11 C 4.419222 -0.639212 -17.928347 0
M  V30 12 N 6.430129 -0.809691 -16.377715 0
M  V30 13 C 6.761390 6.952653 -14.929080 0
M  V30 14 O 6.947148 -0.343047 -13.903325 0
M  V30 15 C 7.135019 4.388550 -14.950766 0 CFG=2
M  V30 16 C 6.993291 1.835621 -15.479946 0 CFG=2
M  V30 17 O 6.003020 5.968404 -11.867680 0
M  V30 18 O 4.719898 0.389335 -14.893095 0
M  V30 19 C 10.718514 7.631592 -8.437367 0 CFG=1
M  V30 20 C 10.387690 8.434242 -7.189615 0
M  V30 21 O 8.622186 0.489400 -16.855663 0
M  V30 22 C 5.919663 -0.551511 -17.725993 0
M  V30 23 C 9.209596 -0.020009 -19.078857 0
M  V30 24 C 8.380177 5.742154 -12.301323 0
M  V30 25 C 7.975807 4.790462 -9.967618 0
M  V30 26 O 10.231649 7.573923 -10.911637 0
M  V30 27 C 6.543774 5.620744 -14.192591 0 CFG=1
M  V30 28 C 8.639212 5.724142 -10.795919 0
M  V30 29 C 8.449713 1.529596 -15.904280 0
M  V30 30 C 6.067021 2.403985 -19.768584 0
M  V30 31 C 12.049808 7.721152 -9.171495 0 CFG=1
M  V30 32 C 9.541586 6.637270 -10.204908 0
M  V30 33 C 12.267908 8.859259 -10.134883 0
M  V30 34 C 9.127700 5.714920 -8.021227 0
M  V30 35 C 6.969101 2.944317 -14.346228 0 CFG=2
M  V30 36 C 10.874710 8.358321 -9.818646 0 CFG=1
M  V30 37 S 6.174407 0.219100 -15.019125 0
M  V30 38 C 10.700377 0.196037 -18.746275 0
M  V30 39 C 5.299713 -1.760537 -18.403709 0
M  V30 40 C 8.220847 4.790264 -8.574781 0
M  V30 41 H 10.183923 6.977617 -5.935254 0
M  V30 42 H 12.250400 1.716231 -18.682904 0
M  V30 43 H 10.966891 2.067824 -19.835854 0
M  V30 44 H 10.695392 2.283260 -18.102356 0
M  V30 45 H 5.567218 4.157123 -20.829367 0
M  V30 46 H 4.975260 4.071354 -19.080407 0
M  V30 47 H 6.733147 0.052828 -19.562212 0
M  V30 48 H 8.422876 1.831595 -18.397271 0
M  V30 49 H 4.914464 3.426674 -13.584969 0
M  V30 50 H 5.467402 1.834524 -13.157982 0
M  V30 51 H 6.113185 3.200335 -12.345297 0
M  V30 52 H 9.019657 4.646006 -14.504017 0
M  V30 53 H 3.796609 -0.818988 -17.054663 0
M  V30 54 H 3.969808 -0.009594 -18.693803 0
M  V30 55 H 7.290252 -1.357853 -16.316461 0
M  V30 56 H 6.079998 7.714560 -14.549708 0
M  V30 57 H 7.775399 7.322764 -14.785476 0
M  V30 58 H 6.580400 6.857954 -16.000612 0
M  V30 59 H 6.605164 4.386908 -15.903227 0
M  V30 60 H 6.442166 2.201877 -16.335901 0
M  V30 61 H 9.333182 8.714382 -7.187467 0
M  V30 62 H 10.974948 9.351469 -7.200122 0
M  V30 63 H 8.984924 -1.084438 -18.997062 0
M  V30 64 H 9.042530 0.242746 -20.123786 0
M  V30 65 H 8.891406 6.591274 -12.755280 0
M  V30 66 H 8.830205 4.838210 -12.707227 0
M  V30 67 H 7.280142 4.083566 -10.393356 0
M  V30 68 H 5.465016 5.467331 -14.205384 0
M  V30 69 H 8.970849 2.411219 -16.270182 0
M  V30 70 H 8.975387 1.190063 -15.013428 0
M  V30 71 H 6.612828 1.891139 -20.549931 0
M  V30 72 H 12.397524 6.790399 -9.584956 0
M  V30 73 H 12.767827 8.580032 -11.059438 0
M  V30 74 H 12.572552 9.804478 -9.704046 0
M  V30 75 H 9.317352 5.717207 -6.959708 0
M  V30 76 H 7.844588 2.753543 -13.723433 0
M  V30 77 H 10.921111 -0.184134 -17.748006 0
M  V30 78 H 11.294283 -0.402386 -19.433673 0
M  V30 79 H 5.425094 -1.872865 -19.478811 0
M  V30 80 H 5.258224 -2.693890 -17.843398 0
M  V30 81 H 7.714765 4.081532 -7.937753 0
M  V30 END ATOM
M  V30 BEGIN BOND
M  V30 1 1 7 6
M  V30 2 1 8 6
M  V30 3 1 15 10
M  V30 4 2 17 2
M  V30 5 1 19 5
M  V30 6 1 20 1
M  V30 7 1 19 20 CFG=1
M  V30 8 1 21 8
M  V30 9 1 22 6
M  V30 10 1 22 11
M  V30 11 1 22 12
M  V30 12 1 23 8
M  V30 13 1 24 2
M  V30 14 1 27 2
M  V30 15 1 27 13
M  V30 16 1 27 15
M  V30 17 1 28 24
M  V30 18 1 28 25
M  V30 19 1 29 16
M  V30 20 1 29 21
M  V30 21 2 30 4
M  V30 22 1 30 7
M  V30 23 1 31 19
M  V30 24 1 32 5
M  V30 25 1 32 26
M  V30 26 2 32 28
M  V30 27 1 33 31
M  V30 28 2 34 5
M  V30 29 1 35 9
M  V30 30 1 35 15
M  V30 31 1 35 16
M  V30 32 1 36 19
M  V30 33 1 36 26 CFG=3
M  V30 34 1 36 31
M  V30 35 1 36 33
M  V30 36 1 37 12
M  V30 37 2 37 14
M  V30 38 1 37 16
M  V30 39 2 37 18
M  V30 40 1 38 3
M  V30 41 1 38 23
M  V30 42 1 39 11
M  V30 43 1 39 22
M  V30 44 2 40 25
M  V30 45 1 40 34
M  V30 46 1 41 1
M  V30 47 1 42 3
M  V30 48 1 43 3
M  V30 49 1 44 3
M  V30 50 1 45 4
M  V30 51 1 46 4
M  V30 52 1 6 47 CFG=3
M  V30 53 1 8 48 CFG=3
M  V30 54 1 49 9
M  V30 55 1 50 9
M  V30 56 1 51 9
M  V30 57 1 52 10
M  V30 58 1 53 11
M  V30 59 1 54 11
M  V30 60 1 55 12
M  V30 61 1 56 13
M  V30 62 1 57 13
M  V30 63 1 58 13
M  V30 64 1 15 59 CFG=3
M  V30 65 1 16 60 CFG=3
M  V30 66 1 61 20
M  V30 67 1 62 20
M  V30 68 1 63 23
M  V30 69 1 64 23
M  V30 70 1 65 24
M  V30 71 1 66 24
M  V30 72 1 67 25
M  V30 73 1 27 68 CFG=1
M  V30 74 1 69 29
M  V30 75 1 70 29
M  V30 76 1 71 30
M  V30 77 1 31 72 CFG=3
M  V30 78 1 73 33
M  V30 79 1 74 33
M  V30 80 1 75 34
M  V30 81 1 35 76 CFG=1
M  V30 82 1 77 38
M  V30 83 1 78 38
M  V30 84 1 79 39
M  V30 85 1 80 39
M  V30 86 1 81 40
M  V30 END BOND
M  V30 END CTAB
M  END
>  <i_epik_Tot_Q>  (1) 
0

>  <i_epik_Tot_abs_Q>  (1) 
0

>  <i_i_glide_confnum>  (1) 
271

>  <i_i_glide_lignum>  (1) 
48

>  <i_i_glide_posenum>  (1) 
197

>  <i_i_glide_rotatable_bonds>  (1) 
13

>  <i_lp_mmshare_version>  (1) 
72125

>  <i_m_source_file_index>  (1) 
28

>  <i_f3d_flags>  (1) 
2

>  <num_sample>  (1) 
100

>  <b_lp_Chiralities_Consistent>  (1) 
0

>  <r_epik_Charging_Adjusted_Penalty>  (1) 
0

>  <r_epik_Ionization_Penalty>  (1) 
0.00012193090232543848

>  <r_epik_Ionization_Penalty_Charging>  (1) 
0

>  <r_epik_Ionization_Penalty_Neutral>  (1) 
0.00012193090232543848

>  <r_epik_State_Penalty>  (1) 
-0

>  <r_glide_ring_energy>  (1) 
0

>  <r_i_docking_score>  (1) 
-4.9132069075969564

>  <r_i_glide_ecoul>  (1) 
-0.98458679393907023

>  <r_i_glide_eff_state_penalty>  (1) 
-0

>  <r_i_glide_einternal>  (1) 
10.83813725511663

>  <r_i_glide_emodel>  (1) 
-42.173849521100962

>  <r_i_glide_emodel_strain>  (1) 
2.3248710143435432

>  <r_i_glide_energy>  (1) 
-41.069950883867882

>  <r_i_glide_erotb>  (1) 
0.53438368926625224

>  <r_i_glide_esite>  (1) 
-0.077914127603345276

>  <r_i_glide_evdw>  (1) 
-40.08536408992881

>  <r_i_glide_gscore>  (1) 
-4.9132069075969564

>  <r_i_glide_gscore_strain>  (1) 
0

>  <r_i_glide_hbond>  (1) 
-0.088671865195546137

>  <r_i_glide_ligand_efficiency>  (1) 
-0.12283017268992391

>  <r_i_glide_ligand_efficiency_ln>  (1) 
-1.0478424441656737

>  <r_i_glide_ligand_efficiency_sa>  (1) 
-0.42007328165182967

>  <r_i_glide_lipo>  (1) 
-2.2144533209285959

>  <r_i_glide_metal>  (1) 
-0

>  <r_i_glide_rewards>  (1) 
-0.91459505954841935

>  <r_lp_Energy>  (1) 
34.534008

>  <r_lp_tautomer_probability>  (1) 
1

>  <s_epik_cmdline>  (1) 
J2VwaWtfcHl0aG9uJywgJy1waHQnLCAnMS4wJywgJy1waCcsICc3LjQnLCAnLXRuJywgJzgnLCAnLW1hJywgJzUwMCcsICctaW1hZScsICc8aW5maWxlLm1hZT4nLCAnLW9tYWUnLCAnPG91dGZpbGUubWFlPic=

>  <s_epik_input>  (1) 
W09IXVtDSDJdW0NAQF0oW0NAXTEyMykoW0NIXTJbQ0gyXTMpYzRjKE8xKWMoW2NIXVtjSF1bY0hdNClbQ0gyXUMoPU8pW0NAQEhdKFtDSDNdKVtDQEBIXShbT0hdKVtDQEBIXShbQ0gzXSlbQ0BIXShTKD1PKSg9TylbTkhdNSlbQ0gyXU9bQ0BASF0oW0NIMl1bQ0gyXVtDSDNdKVtDQEhdKE9bQ0hdPVtDSDJdKUM1NltDSDJdW0NIMl02

>  <s_glide_docking_method>  (1) 
confgen

>  <s_i_glide_gridfile>  (1) 
gpcr_drd2_6luq_protein_autoprepared_prepared

>  <s_lp_Force_Field>  (1) 
S-OPLS

>  <s_lp_Variant>  (1) 
DiffSBDD_27-1

>  <s_m_source_file>  (1) 
generated_generic_title2_ligand_DiffSBDD_2026-06-23_prepared.sdf

>  <GenAI_Model>  (1) 
DiffSBDD

>  <Protein>  (1) 
generic_title2

$$$$
DiffSBDD_35
     RDKit          3D

  0  0  0  0  0  0  0  0  0  0999 V3000
M  V30 BEGIN CTAB
M  V30 COUNTS 58 60 0 0 1
M  V30 BEGIN ATOM
M  V30 1 O 8.508051 2.636864 -17.440953 0
M  V30 2 N 11.775410 8.795872 -4.591697 0 CHG=1
M  V30 3 C 12.064467 6.720232 -2.785023 0
M  V30 4 C 10.696504 8.509804 -7.103228 0
M  V30 5 C 6.584008 6.407176 -15.717661 0
M  V30 6 C 8.597410 3.484086 -16.345195 0
M  V30 7 C 10.372203 6.124940 -6.638603 0
M  V30 8 C 5.811058 7.076400 -13.429100 0
M  V30 9 C 12.446213 9.019701 -3.441877 0
M  V30 10 Cl 5.849864 5.990226 -11.035354 0
M  V30 11 O 7.759288 4.579160 -16.512747 0
M  V30 12 C 9.661036 8.017878 -10.947689 0
M  V30 13 C 7.794592 5.667240 -12.951718 0
M  V30 14 C 11.375410 6.519324 -3.999237 0
M  V30 15 S 8.898018 5.257441 -11.553740 0
M  V30 16 C 6.234564 7.500722 -14.784166 0
M  V30 17 C 10.031907 7.870978 -8.347996 0 CFG=2
M  V30 18 C 10.146946 6.342611 -8.136473 0 CFG=2
M  V30 19 C 7.490401 5.451789 -15.482172 0
M  V30 20 C 12.060519 8.235129 -9.905897 0
M  V30 21 C 10.536123 8.415632 -9.704932 0 CFG=1
M  V30 22 N 10.527887 7.463907 -6.128005 0
M  V30 23 C 6.508342 6.292364 -12.602387 0
M  V30 24 O 9.775408 4.081347 -11.985024 0
M  V30 25 C 11.236867 7.595302 -4.907366 0
M  V30 26 O 11.022305 6.671708 -12.385024 0
M  V30 27 C 10.007038 6.722463 -11.692035 0
M  V30 28 C 9.298915 1.468530 -17.303200 0
M  V30 29 F 9.057731 5.690939 -8.536676 0
M  V30 30 C 8.221525 5.293898 -14.200489 0
M  V30 31 C 12.603390 7.987556 -2.503627 0
M  V30 32 H 12.172838 5.910175 -2.077767 0
M  V30 33 H 11.756444 8.715754 -7.233885 0
M  V30 34 H 10.190424 9.421660 -6.785026 0
M  V30 35 H 6.105277 6.443035 -16.685467 0
M  V30 36 H 9.625869 3.838749 -16.254039 0
M  V30 37 H 8.301898 2.930594 -15.451239 0
M  V30 38 H 11.272590 5.534397 -6.476180 0
M  V30 39 H 9.508720 5.650061 -6.177798 0
M  V30 40 H 4.885263 7.492728 -13.079798 0
M  V30 41 H 12.832104 10.008721 -3.305507 0
M  V30 42 H 9.763860 8.790226 -11.705849 0
M  V30 43 H 8.597250 8.018537 -10.722255 0
M  V30 44 H 10.946895 5.563219 -4.221411 0
M  V30 45 H 5.411853 8.063412 -15.226529 0
M  V30 46 H 7.076089 8.191172 -14.714089 0
M  V30 47 H 8.975410 8.119893 -8.269889 0
M  V30 48 H 10.975410 5.932141 -8.701726 0
M  V30 49 H 12.343719 7.190229 -10.011251 0
M  V30 50 H 12.410068 8.763650 -10.785025 0
M  V30 51 H 12.648811 8.646718 -9.089767 0
M  V30 52 H 10.400824 9.489764 -9.585025 0
M  V30 53 H 9.199285 0.851009 -18.195502 0
M  V30 54 H 10.354823 1.715650 -17.185018 0
M  V30 55 H 8.975405 0.874081 -16.447236 0
M  V30 56 H 9.174939 4.789778 -14.244954 0
M  V30 57 H 13.133552 8.165991 -1.579361 0
M  V30 58 H 11.668686 9.567275 -5.250998 0
M  V30 END ATOM
M  V30 BEGIN BOND
M  V30 1 1 6 1
M  V30 2 2 9 2
M  V30 3 1 11 6
M  V30 4 1 14 3
M  V30 5 1 15 13
M  V30 6 1 16 5
M  V30 7 1 16 8
M  V30 8 1 17 4
M  V30 9 1 18 7
M  V30 10 1 18 17
M  V30 11 2 19 5
M  V30 12 1 19 11
M  V30 13 1 21 12
M  V30 14 1 21 17
M  V30 15 1 21 20
M  V30 16 1 22 4
M  V30 17 1 22 7
M  V30 18 2 23 8
M  V30 19 1 23 10
M  V30 20 1 23 13
M  V30 21 2 24 15
M  V30 22 1 25 2
M  V30 23 2 25 14
M  V30 24 1 25 22
M  V30 25 1 27 12
M  V30 26 1 15 27 CFG=3
M  V30 27 2 27 26
M  V30 28 1 28 1
M  V30 29 1 29 18
M  V30 30 2 30 13
M  V30 31 1 30 19
M  V30 32 2 31 3
M  V30 33 1 31 9
M  V30 34 1 32 3
M  V30 35 1 33 4
M  V30 36 1 34 4
M  V30 37 1 35 5
M  V30 38 1 36 6
M  V30 39 1 37 6
M  V30 40 1 38 7
M  V30 41 1 39 7
M  V30 42 1 40 8
M  V30 43 1 41 9
M  V30 44 1 42 12
M  V30 45 1 43 12
M  V30 46 1 44 14
M  V30 47 1 45 16
M  V30 48 1 46 16
M  V30 49 1 17 47 CFG=1
M  V30 50 1 18 48 CFG=3
M  V30 51 1 49 20
M  V30 52 1 50 20
M  V30 53 1 51 20
M  V30 54 1 21 52 CFG=1
M  V30 55 1 53 28
M  V30 56 1 54 28
M  V30 57 1 55 28
M  V30 58 1 56 30
M  V30 59 1 57 31
M  V30 60 1 58 2
M  V30 END BOND
M  V30 END CTAB
M  END
>  <i_epik_Tot_Q>  (1) 
1

>  <i_epik_Tot_abs_Q>  (1) 
1

>  <i_i_glide_confnum>  (1) 
38

>  <i_i_glide_lignum>  (1) 
60

>  <i_i_glide_posenum>  (1) 
43

>  <i_i_glide_rotatable_bonds>  (1) 
9

>  <i_lp_mmshare_version>  (1) 
72125

>  <i_m_source_file_index>  (1) 
36

>  <i_f3d_flags>  (1) 
0

>  <num_sample>  (1) 
100

>  <b_lp_Chiralities_Consistent>  (1) 
1

>  <r_epik_Charging_Adjusted_Penalty>  (1) 
2.209854292761551

>  <r_epik_Ionization_Penalty>  (1) 
1.1049271463807997

>  <r_epik_Ionization_Penalty_Charging>  (1) 
1.1049271463807746

>  <r_epik_Ionization_Penalty_Neutral>  (1) 
2.4996070932980704e-14

>  <r_epik_State_Penalty>  (1) 
1.1049271463807766

>  <r_glide_ring_energy>  (1) 
0

>  <r_i_docking_score>  (1) 
-4.9104836145988893

>  <r_i_glide_ecoul>  (1) 
-1.3744662746291141

>  <r_i_glide_eff_state_penalty>  (1) 
1.1049271463807766

>  <r_i_glide_einternal>  (1) 
6.304420187723629

>  <r_i_glide_emodel>  (1) 
-55.605076381843588

>  <r_i_glide_emodel_strain>  (1) 
0

>  <r_i_glide_energy>  (1) 
-41.869418907162775

>  <r_i_glide_erotb>  (1) 
0.7316535107535509

>  <r_i_glide_esite>  (1) 
-0.084478270855143756

>  <r_i_glide_evdw>  (1) 
-40.494952632533661

>  <r_i_glide_gscore>  (1) 
-6.0154107609796661

>  <r_i_glide_gscore_strain>  (1) 
0

>  <r_i_glide_hbond>  (1) 
0

>  <r_i_glide_ligand_efficiency>  (1) 
-0.15840269724512546

>  <r_i_glide_ligand_efficiency_ln>  (1) 
-1.1074645433418817

>  <r_i_glide_ligand_efficiency_sa>  (1) 
-0.49760316841244862

>  <r_i_glide_lipo>  (1) 
-2.8164879159937706

>  <r_i_glide_metal>  (1) 
-0

>  <r_i_glide_rewards>  (1) 
-1.6151805120632521

>  <r_lp_Energy>  (1) 
47.315815999999998

>  <r_lp_tautomer_probability>  (1) 
0.99999385203779767

>  <s_epik_Chemistry_Notes>  (1) 
This compound contains an acetal/aminal-like group ( X-CH(R)-Y where X, Y are N, S, or O) that may be acid/base labile, releasing an aldehyde.

>  <s_epik_cmdline>  (1) 
J2VwaWtfcHl0aG9uJywgJy1waHQnLCAnMS4wJywgJy1waCcsICc3LjQnLCAnLXRuJywgJzgnLCAnLW1hJywgJzUwMCcsICctaW1hZScsICc8aW5maWxlLm1hZT4nLCAnLW9tYWUnLCAnPG91dGZpbGUubWFlPic=

>  <s_epik_input>  (1) 
Q2xDMT1bQ0hdW0NIMl1bQ0hdPUMoT1tDSDJdT1tDSDNdKVtDSF09QzFbU0BAXSg9TylDKD1PKVtDSDJdW0NASF0oW0NIM10pW0NAQEhdMltDSDJdTihbQ0gyXVtDQEhdMkYpYzNuW2NIXVtjSF1bY0hdW2NIXTM=

>  <s_glide_docking_method>  (1) 
confgen

>  <s_i_glide_gridfile>  (1) 
gpcr_drd2_6luq_protein_autoprepared_prepared

>  <s_lp_Force_Field>  (1) 
S-OPLS

>  <s_lp_Variant>  (1) 
DiffSBDD_35-2

>  <s_m_source_file>  (1) 
generated_generic_title2_ligand_DiffSBDD_2026-06-23_prepared.sdf

>  <GenAI_Model>  (1) 
DiffSBDD

>  <Protein>  (1) 
generic_title2

$$$$
DiffSBDD_70
     RDKit          3D

  0  0  0  0  0  0  0  0  0  0999 V3000
M  V30 BEGIN CTAB
M  V30 COUNTS 74 78 0 0 1
M  V30 BEGIN ATOM
M  V30 1 C 7.649811 0.861993 -15.483154 0
M  V30 2 C 10.791876 7.253792 -11.497776 0
M  V30 3 C 9.127467 2.312925 -17.487635 0
M  V30 4 C 9.528750 6.556386 -12.003956 0
M  V30 5 C 17.119061 6.522612 -17.259006 0
M  V30 6 N 16.351436 4.390393 -16.431378 0
M  V30 7 C 5.905178 3.839598 -12.148039 0
M  V30 8 C 7.417819 5.500698 -10.946638 0 CFG=1
M  V30 9 C 7.298417 4.804336 -9.607806 0
M  V30 10 C 6.909872 2.461490 -18.675922 0
M  V30 11 C 7.070909 4.839133 -12.293351 0 CFG=2
M  V30 12 O 12.922549 4.579431 -18.723632 0
M  V30 13 C 8.649307 5.135984 -10.158122 0 CFG=2
M  V30 14 C 7.317724 5.651346 -14.748224 0
M  V30 15 C 6.686844 5.854972 -13.373459 0
M  V30 16 C 7.633840 2.566576 -17.322480 0 CFG=1
M  V30 17 C 15.748093 7.749205 -18.863663 0
M  V30 18 C 11.973615 3.509284 -18.666108 0
M  V30 19 O 6.945809 1.672609 -16.424228 0
M  V30 20 Cl 18.073583 8.925617 -18.100165 0
M  V30 21 C 7.274278 4.206152 -15.292983 0
M  V30 22 C 9.152761 4.607044 -17.010197 0 CFG=2
M  V30 23 C 16.907775 7.653823 -18.074500 0
M  V30 24 C 5.843437 6.873017 -13.125996 0
M  V30 25 C 9.210402 5.565944 -18.209490 0
M  V30 26 N 9.860671 3.389236 -17.296819 0
M  V30 27 C 14.798859 6.715272 -18.839055 0
M  V30 28 C 11.321625 3.390585 -17.273098 0
M  V30 29 C 16.170223 5.477143 -17.217066 0
M  V30 30 N 14.263409 3.449295 -17.190315 0
M  V30 31 C 15.375369 3.468230 -16.451789 0
M  V30 32 N 8.575411 6.390224 -10.889320 0 CFG=1 CHG=1
M  V30 33 O 9.578387 1.198165 -17.755293 0
M  V30 34 C 7.692700 4.058709 -16.776565 0 CFG=1
M  V30 35 C 14.084140 4.538855 -17.968976 0
M  V30 36 C 15.012501 5.588406 -18.019276 0
M  V30 37 H 6.935482 0.437089 -14.777593 0
M  V30 38 H 8.149291 0.025824 -15.972552 0
M  V30 39 H 8.386770 1.421171 -14.908450 0
M  V30 40 H 11.576204 7.225520 -12.254963 0
M  V30 41 H 10.575421 8.288423 -11.228341 0
M  V30 42 H 11.184009 6.790270 -10.596255 0
M  V30 43 H 9.790336 5.602206 -12.463007 0
M  V30 44 H 9.069267 7.175896 -12.773241 0
M  V30 45 H 18.012116 6.458187 -16.655819 0
M  V30 46 H 5.578173 3.448727 -13.109720 0
M  V30 47 H 6.175349 2.972835 -11.551452 0
M  V30 48 H 5.038242 4.309750 -11.682269 0
M  V30 49 H 6.975530 5.431788 -8.785077 0
M  V30 50 H 6.966856 3.774697 -9.565611 0
M  V30 51 H 7.389075 3.071428 -19.441959 0
M  V30 52 H 6.896038 1.431776 -19.034372 0
M  V30 53 H 5.873794 2.790670 -18.592925 0
M  V30 54 H 7.947515 4.280808 -12.617046 0
M  V30 55 H 9.260057 4.362191 -10.620582 0
M  V30 56 H 6.830747 6.316377 -15.462593 0
M  V30 57 H 8.347122 5.991221 -14.671453 0
M  V30 58 H 15.587711 8.616699 -19.488292 0
M  V30 59 H 12.436013 2.566399 -18.961431 0
M  V30 60 H 11.216387 3.717031 -19.422169 0
M  V30 61 H 7.913965 3.573562 -14.682759 0
M  V30 62 H 6.260749 3.826255 -15.184992 0
M  V30 63 H 9.586831 5.073645 -16.128278 0
M  V30 64 H 5.403296 7.008832 -12.148227 0
M  V30 65 H 5.583768 7.581910 -13.898996 0
M  V30 66 H 8.516529 6.390362 -18.069066 0
M  V30 67 H 10.209472 5.984639 -18.336542 0
M  V30 68 H 8.933513 5.067501 -19.139048 0
M  V30 69 H 13.906771 6.786603 -19.445392 0
M  V30 70 H 11.650157 4.212380 -16.635479 0
M  V30 71 H 11.689684 2.487432 -16.785179 0
M  V30 72 H 15.523626 2.614641 -15.806696 0
M  V30 73 H 6.987392 4.662988 -17.349766 0
M  V30 74 H 8.334540 7.197352 -10.315487 0
M  V30 END ATOM
M  V30 BEGIN BOND
M  V30 1 1 4 2
M  V30 2 1 8 9 CFG=1
M  V30 3 1 11 7
M  V30 4 1 11 8
M  V30 5 1 13 8
M  V30 6 1 13 9
M  V30 7 1 15 11
M  V30 8 1 15 14
M  V30 9 1 16 3
M  V30 10 1 16 10
M  V30 11 1 18 12
M  V30 12 1 19 1
M  V30 13 1 16 19 CFG=1
M  V30 14 1 21 14
M  V30 15 2 23 5
M  V30 16 1 23 17
M  V30 17 1 23 20
M  V30 18 2 24 15
M  V30 19 1 25 22
M  V30 20 1 26 3
M  V30 21 1 26 22
M  V30 22 2 27 17
M  V30 23 1 28 18
M  V30 24 1 28 26
M  V30 25 1 29 5
M  V30 26 2 29 6
M  V30 27 1 31 6
M  V30 28 2 31 30
M  V30 29 1 32 4
M  V30 30 1 32 8
M  V30 31 1 32 13
M  V30 32 2 33 3
M  V30 33 1 34 16
M  V30 34 1 34 21
M  V30 35 1 34 22
M  V30 36 1 35 12
M  V30 37 1 35 30
M  V30 38 1 36 27
M  V30 39 1 36 29
M  V30 40 2 36 35
M  V30 41 1 37 1
M  V30 42 1 38 1
M  V30 43 1 39 1
M  V30 44 1 40 2
M  V30 45 1 41 2
M  V30 46 1 42 2
M  V30 47 1 43 4
M  V30 48 1 44 4
M  V30 49 1 45 5
M  V30 50 1 46 7
M  V30 51 1 47 7
M  V30 52 1 48 7
M  V30 53 1 49 9
M  V30 54 1 50 9
M  V30 55 1 51 10
M  V30 56 1 52 10
M  V30 57 1 53 10
M  V30 58 1 11 54 CFG=3
M  V30 59 1 13 55 CFG=3
M  V30 60 1 56 14
M  V30 61 1 57 14
M  V30 62 1 58 17
M  V30 63 1 59 18
M  V30 64 1 60 18
M  V30 65 1 61 21
M  V30 66 1 62 21
M  V30 67 1 22 63 CFG=1
M  V30 68 1 64 24
M  V30 69 1 65 24
M  V30 70 1 66 25
M  V30 71 1 67 25
M  V30 72 1 68 25
M  V30 73 1 69 27
M  V30 74 1 70 28
M  V30 75 1 71 28
M  V30 76 1 72 31
M  V30 77 1 34 73 CFG=3
M  V30 78 1 32 74 CFG=1
M  V30 END BOND
M  V30 END CTAB
M  END
>  <i_epik_Tot_Q>  (1) 
1

>  <i_epik_Tot_abs_Q>  (1) 
1

>  <i_i_glide_confnum>  (1) 
255

>  <i_i_glide_lignum>  (1) 
113

>  <i_i_glide_posenum>  (1) 
391

>  <i_i_glide_rotatable_bonds>  (1) 
11

>  <i_lp_mmshare_version>  (1) 
72125

>  <i_m_source_file_index>  (1) 
71

>  <i_f3d_flags>  (1) 
0

>  <num_sample>  (1) 
100

>  <b_lp_Chiralities_Consistent>  (1) 
1

>  <r_epik_Charging_Adjusted_Penalty>  (1) 
0.028882640618341202

>  <r_epik_Ionization_Penalty>  (1) 
0.014531529159765241

>  <r_epik_Ionization_Penalty_Charging>  (1) 
0.014441320309170608

>  <r_epik_Ionization_Penalty_Neutral>  (1) 
9.020885059463329e-05

>  <r_epik_State_Penalty>  (1) 
0.014441320309170594

>  <r_glide_ring_energy>  (1) 
0

>  <r_i_docking_score>  (1) 
-4.9045191352152235

>  <r_i_glide_ecoul>  (1) 
-8.2162866578680962

>  <r_i_glide_eff_state_penalty>  (1) 
0.014441320309170594

>  <r_i_glide_einternal>  (1) 
7.3024095457306792

>  <r_i_glide_emodel>  (1) 
-50.420431993156377

>  <r_i_glide_emodel_strain>  (1) 
0.32867537834700045

>  <r_i_glide_energy>  (1) 
-39.08420537773366

>  <r_i_glide_erotb>  (1) 
0.62084064417162321

>  <r_i_glide_esite>  (1) 
-0.092886569685962039

>  <r_i_glide_evdw>  (1) 
-30.867918719865564

>  <r_i_glide_gscore>  (1) 
-4.9189604555243944

>  <r_i_glide_gscore_strain>  (1) 
0

>  <r_i_glide_hbond>  (1) 
-0.47812484090366014

>  <r_i_glide_ligand_efficiency>  (1) 
-0.13623664264486732

>  <r_i_glide_ligand_efficiency_ln>  (1) 
-1.0700335705097441

>  <r_i_glide_ligand_efficiency_sa>  (1) 
-0.44984348264700724

>  <r_i_glide_lipo>  (1) 
-1.4967197038175803

>  <r_i_glide_metal>  (1) 
-0

>  <r_i_glide_rewards>  (1) 
-0.69623105061532164

>  <r_lp_Energy>  (1) 
33.740380000000002

>  <r_lp_tautomer_probability>  (1) 
1

>  <s_epik_cmdline>  (1) 
J2VwaWtfcHl0aG9uJywgJy1waHQnLCAnMS4wJywgJy1waCcsICc3LjQnLCAnLXRuJywgJzgnLCAnLW1hJywgJzUwMCcsICctaW1hZScsICc8aW5maWxlLm1hZT4nLCAnLW9tYWUnLCAnPG91dGZpbGUubWFlPic=

>  <s_epik_input>  (1) 
W2NIXTFjKENsKVtjSF1bY0hdYyhjMTIpYyhuW2NIXW4yKU9bQ0gyXVtDSDJdTihDKD1PKVtDQEBdMyhbQ0gzXSlPW0NIM10pW0NAQEhdKFtDSDNdKVtDQEBIXTNbQ0gyXVtDSDJdQyg9W0NIMl0pW0NASF0oW0NIM10pQzQ1W0NASF0oW0NIMl00KU41W0NIMl1bQ0gzXQ==

>  <s_glide_docking_method>  (1) 
confgen

>  <s_i_glide_gridfile>  (1) 
gpcr_drd2_6luq_protein_autoprepared_prepared

>  <s_lp_Force_Field>  (1) 
S-OPLS

>  <s_lp_Variant>  (1) 
DiffSBDD_70-1

>  <s_m_source_file>  (1) 
generated_generic_title2_ligand_DiffSBDD_2026-06-23_prepared.sdf

>  <GenAI_Model>  (1) 
DiffSBDD

>  <Protein>  (1) 
generic_title2

$$$$
DiffSBDD_4
     RDKit          3D

  0  0  0  0  0  0  0  0  0  0999 V3000
M  V30 BEGIN CTAB
M  V30 COUNTS 76 80 0 0 1
M  V30 BEGIN ATOM
M  V30 1 C 8.990918 6.320733 -11.890469 0 CFG=1
M  V30 2 C 8.065520 4.581904 -14.143188 0 CFG=2
M  V30 3 C 7.841396 1.765336 -15.657453 0
M  V30 4 O 5.904701 2.174479 -19.218803 0
M  V30 5 C 6.962995 0.556661 -17.755420 0 CFG=1
M  V30 6 O 11.462211 7.590107 -10.772681 0
M  V30 7 C 7.634926 6.628698 -12.566375 0 CFG=2
M  V30 8 C 11.749968 9.592848 -6.266751 0 CFG=2
M  V30 9 C 7.581062 3.157362 -16.277819 0 CFG=2
M  V30 10 C 9.121603 7.029189 -10.550853 0 CFG=2
M  V30 11 C 8.833978 -0.935876 -17.565717 0
M  V30 12 O 12.454432 8.789462 -7.180555 0
M  V30 13 C 7.520173 4.419107 -18.607385 0
M  V30 14 C 5.921276 -0.451086 -18.297037 0
M  V30 15 C 11.607650 9.422742 -4.770262 0
M  V30 16 C 6.760370 1.958887 -18.358417 0
M  V30 17 O 9.581070 8.790233 -6.238220 0
M  V30 18 C 9.194450 4.805902 -11.814011 0
M  V30 19 C 11.008518 6.500176 -7.964848 0
M  V30 20 C 9.377552 8.385812 -7.599239 0
M  V30 21 O 11.672063 8.843373 -8.465432 0
M  V30 22 C 10.154563 -1.137820 -17.554428 0
M  V30 23 C 10.847310 8.518579 -5.689272 0 CFG=1
M  V30 24 C 6.869402 0.704246 -16.210885 0
M  V30 25 C 9.220881 8.536277 -10.690770 0
M  V30 26 C 7.683547 3.080769 -17.834088 0 CFG=2
M  V30 27 O 6.547856 6.183680 -11.772864 0
M  V30 28 C 6.252529 5.233078 -18.299925 0
M  V30 29 C 8.438358 4.256769 -15.624568 0
M  V30 30 C 10.599277 7.892228 -8.458656 0 CFG=1
M  V30 31 C 7.572824 6.048433 -13.994707 0
M  V30 32 C 10.305403 7.791367 -9.977728 0 CFG=2
M  V30 33 O 8.276785 0.162585 -18.162518 0
M  V30 34 C 9.267946 4.247967 -13.235860 0
M  V30 35 H 9.770866 6.717779 -12.544356 0
M  V30 36 H 7.237798 3.949189 -13.815674 0
M  V30 37 H 8.867270 1.462918 -15.872071 0
M  V30 38 H 7.752400 1.795745 -14.571272 0
M  V30 39 H 12.102307 8.233715 -10.503359 0
M  V30 40 H 7.515428 7.709358 -12.656058 0
M  V30 41 H 11.375299 10.518450 -6.689846 0
M  V30 42 H 6.575648 3.436312 -16.019283 0
M  V30 43 H 8.574532 6.545199 -9.753430 0
M  V30 44 H 8.103644 -1.599152 -17.121650 0
M  V30 45 H 8.396687 5.043863 -18.436670 0
M  V30 46 H 7.542641 4.213613 -19.679124 0
M  V30 47 H 4.902062 -0.117750 -18.095330 0
M  V30 48 H 6.020678 -0.582494 -19.376084 0
M  V30 49 H 6.025886 -1.434568 -17.839506 0
M  V30 50 H 12.462165 9.010964 -4.237363 0
M  V30 51 H 11.027684 10.160703 -4.219811 0
M  V30 52 H 10.122370 4.574373 -11.293583 0
M  V30 53 H 8.392611 4.325143 -11.251042 0
M  V30 54 H 10.165994 5.918687 -7.592108 0
M  V30 55 H 11.375265 5.989420 -8.818354 0
M  V30 56 H 11.809321 6.464387 -7.231514 0
M  V30 57 H 8.884047 9.232475 -8.058211 0
M  V30 58 H 8.611825 7.608414 -7.579183 0
M  V30 59 H 10.575681 -2.005271 -17.083031 0
M  V30 60 H 10.828991 -0.433704 -18.017590 0
M  V30 61 H 11.095206 7.470353 -5.568710 0
M  V30 62 H 7.041356 -0.247309 -15.707100 0
M  V30 63 H 5.850655 0.979243 -15.937521 0
M  V30 64 H 8.576213 9.189972 -10.118403 0
M  V30 65 H 9.377691 8.853417 -11.717316 0
M  V30 66 H 8.691663 2.735692 -18.060962 0
M  V30 67 H 6.577035 6.667963 -10.949127 0
M  V30 68 H 6.246685 6.155118 -18.882451 0
M  V30 69 H 5.350447 4.681596 -18.556108 0
M  V30 70 H 6.190135 5.511012 -17.248219 0
M  V30 71 H 8.347112 5.171439 -16.205969 0
M  V30 72 H 9.489579 3.992558 -15.730525 0
M  V30 73 H 8.173607 6.698626 -14.626302 0
M  V30 74 H 6.559626 6.138028 -14.390127 0
M  V30 75 H 10.167573 4.650601 -13.697197 0
M  V30 76 H 9.376242 3.166919 -13.182681 0
M  V30 END ATOM
M  V30 BEGIN BOND
M  V30 1 1 7 1
M  V30 2 1 9 3
M  V30 3 1 10 1
M  V30 4 1 12 8
M  V30 5 1 14 5
M  V30 6 1 15 8
M  V30 7 2 16 4
M  V30 8 1 16 5
M  V30 9 1 18 1
M  V30 10 1 20 17
M  V30 11 1 21 12
M  V30 12 2 22 11
M  V30 13 1 23 8
M  V30 14 1 23 15
M  V30 15 1 23 17
M  V30 16 1 24 3
M  V30 17 1 24 5
M  V30 18 1 25 10
M  V30 19 1 26 9
M  V30 20 1 26 13
M  V30 21 1 26 16
M  V30 22 1 27 7
M  V30 23 1 28 13
M  V30 24 1 29 2
M  V30 25 1 29 9
M  V30 26 1 30 19 CFG=1
M  V30 27 1 30 20
M  V30 28 1 30 21
M  V30 29 1 31 2
M  V30 30 1 31 7
M  V30 31 1 32 6 CFG=3
M  V30 32 1 32 10
M  V30 33 1 32 25
M  V30 34 1 32 30
M  V30 35 1 5 33 CFG=1
M  V30 36 1 33 11
M  V30 37 1 34 2
M  V30 38 1 34 18
M  V30 39 1 1 35 CFG=3
M  V30 40 1 2 36 CFG=1
M  V30 41 1 37 3
M  V30 42 1 38 3
M  V30 43 1 39 6
M  V30 44 1 7 40 CFG=3
M  V30 45 1 8 41 CFG=1
M  V30 46 1 9 42 CFG=3
M  V30 47 1 10 43 CFG=1
M  V30 48 1 44 11
M  V30 49 1 45 13
M  V30 50 1 46 13
M  V30 51 1 47 14
M  V30 52 1 48 14
M  V30 53 1 49 14
M  V30 54 1 50 15
M  V30 55 1 51 15
M  V30 56 1 52 18
M  V30 57 1 53 18
M  V30 58 1 54 19
M  V30 59 1 55 19
M  V30 60 1 56 19
M  V30 61 1 57 20
M  V30 62 1 58 20
M  V30 63 1 59 22
M  V30 64 1 60 22
M  V30 65 1 23 61 CFG=3
M  V30 66 1 62 24
M  V30 67 1 63 24
M  V30 68 1 64 25
M  V30 69 1 65 25
M  V30 70 1 26 66 CFG=1
M  V30 71 1 67 27
M  V30 72 1 68 28
M  V30 73 1 69 28
M  V30 74 1 70 28
M  V30 75 1 71 29
M  V30 76 1 72 29
M  V30 77 1 73 31
M  V30 78 1 74 31
M  V30 79 1 75 34
M  V30 80 1 76 34
M  V30 END BOND
M  V30 END CTAB
M  END
>  <i_epik_Tot_Q>  (1) 
0

>  <i_epik_Tot_abs_Q>  (1) 
0

>  <i_i_glide_confnum>  (1) 
109

>  <i_i_glide_lignum>  (1) 
8

>  <i_i_glide_posenum>  (1) 
125

>  <i_i_glide_rotatable_bonds>  (1) 
9

>  <i_lp_mmshare_version>  (1) 
72125

>  <i_m_source_file_index>  (1) 
5

>  <i_f3d_flags>  (1) 
0

>  <num_sample>  (1) 
100

>  <b_lp_Chiralities_Consistent>  (1) 
1

>  <r_epik_Charging_Adjusted_Penalty>  (1) 
0

>  <r_epik_Ionization_Penalty>  (1) 
6.2478277439111229e-07

>  <r_epik_Ionization_Penalty_Charging>  (1) 
0

>  <r_epik_Ionization_Penalty_Neutral>  (1) 
6.2478277439111229e-07

>  <r_epik_State_Penalty>  (1) 
-0

>  <r_glide_ring_energy>  (1) 
0

>  <r_i_docking_score>  (1) 
-4.9044552939127879

>  <r_i_glide_ecoul>  (1) 
-5.5008034833423372

>  <r_i_glide_eff_state_penalty>  (1) 
-0

>  <r_i_glide_einternal>  (1) 
12.844910113275215

>  <r_i_glide_emodel>  (1) 
-33.718717958894409

>  <r_i_glide_emodel_strain>  (1) 
3.443514669252778

>  <r_i_glide_energy>  (1) 
-35.927709022245551

>  <r_i_glide_erotb>  (1) 
0.53077912702887098

>  <r_i_glide_esite>  (1) 
0

>  <r_i_glide_evdw>  (1) 
-30.426905538903217

>  <r_i_glide_gscore>  (1) 
-4.9044552939127879

>  <r_i_glide_gscore_strain>  (1) 
0

>  <r_i_glide_hbond>  (1) 
-0.16

>  <r_i_glide_ligand_efficiency>  (1) 
-0.14424868511508199

>  <r_i_glide_ligand_efficiency_ln>  (1) 
-1.0835317397366815

>  <r_i_glide_ligand_efficiency_sa>  (1) 
-0.46730974261757935

>  <r_i_glide_lipo>  (1) 
-2.33200799230094

>  <r_i_glide_metal>  (1) 
-0

>  <r_i_glide_rewards>  (1) 
-0.59676062919420669

>  <r_lp_Energy>  (1) 
51.660091999999999

>  <r_lp_tautomer_probability>  (1) 
1

>  <s_epik_cmdline>  (1) 
J2VwaWtfcHl0aG9uJywgJy1waHQnLCAnMS4wJywgJy1waCcsICc3LjQnLCAnLXRuJywgJzgnLCAnLW1hJywgJzUwMCcsICctaW1hZScsICc8aW5maWxlLm1hZT4nLCAnLW9tYWUnLCAnPG91dGZpbGUubWFlPic=

>  <s_epik_input>  (1) 
W0NAQEhdMTJbQ0BASF0oW0NIMl0yKU9bQ0gyXVtDQF0oW0NIM10pKE9PMSlbQ0BAXTMoW09IXSlbQ0BASF0oW0NIMl0zKVtDQEBIXTRbQ0BIXShbT0hdKVtDSDJdW0NASF0oW0NIMl1bQ0gyXTQpW0NIMl1bQ0BIXShbQ0gyXVtDSDJdNSlbQ0BIXShbQ0gyXVtDSDNdKUMoPU8pW0NAQF01KFtDSDNdKU9bQ0hdPVtDSDJd

>  <s_glide_docking_method>  (1) 
confgen

>  <s_i_glide_gridfile>  (1) 
gpcr_drd2_6luq_protein_autoprepared_prepared

>  <s_lp_Force_Field>  (1) 
S-OPLS

>  <s_lp_Variant>  (1) 
DiffSBDD_4-1

>  <s_m_source_file>  (1) 
generated_generic_title2_ligand_DiffSBDD_2026-06-23_prepared.sdf

>  <GenAI_Model>  (1) 
DiffSBDD

>  <Protein>  (1) 
generic_title2

$$$$
DiffSBDD_88
     RDKit          3D

  0  0  0  0  0  0  0  0  0  0999 V3000
M  V30 BEGIN CTAB
M  V30 COUNTS 37 38 0 0 1
M  V30 BEGIN ATOM
M  V30 1 C 9.166451 5.004653 -8.989172 0 CFG=1
M  V30 2 F 7.346890 5.590220 -10.411763 0
M  V30 3 C 11.334513 6.461496 -4.970145 0
M  V30 4 C 11.800084 6.900578 -3.577577 0
M  V30 5 O 9.818603 8.861458 -7.185025 0
M  V30 6 O 12.024723 9.143136 -2.574073 0
M  V30 7 O 8.175348 4.583816 -8.083594 0
M  V30 8 C 12.228829 8.372742 -3.738755 0 CFG=2
M  V30 9 C 10.486796 7.165552 -9.575125 0
M  V30 10 N 10.946486 7.718642 -5.605063 0
M  V30 11 C 8.545553 5.017187 -10.403859 0 CFG=1
M  V30 12 F 8.975424 7.964457 -11.185037 0
M  V30 13 C 9.932352 7.056354 -11.021982 0 CFG=2
M  V30 14 C 10.164054 7.791851 -6.714814 0
M  V30 15 C 8.776569 5.661383 -12.848496 0
M  V30 16 N 9.816552 6.559449 -7.222483 0
M  V30 17 C 9.811744 6.282347 -8.482831 0
M  V30 18 C 11.422218 8.917840 -4.927013 0
M  V30 19 C 9.441413 5.659798 -11.464321 0 CFG=2
M  V30 20 H 9.944499 4.241977 -8.972928 0
M  V30 21 H 10.511367 5.756869 -4.874254 0
M  V30 22 H 12.139403 5.990297 -5.535369 0
M  V30 23 H 12.586063 6.264774 -3.183081 0
M  V30 24 H 10.975406 6.790230 -2.877060 0
M  V30 25 H 12.730673 8.982246 -1.965983 0
M  V30 26 H 7.552009 5.296776 -8.013788 0
M  V30 27 H 13.290369 8.405838 -3.985020 0
M  V30 28 H 10.498651 8.223440 -9.334730 0
M  V30 29 H 11.535820 6.874380 -9.585074 0
M  V30 30 H 8.342751 3.990260 -10.701045 0
M  V30 31 H 10.710625 7.383979 -11.711254 0
M  V30 32 H 7.907317 6.319541 -12.879780 0
M  V30 33 H 9.478654 5.990154 -13.611586 0
M  V30 34 H 8.443279 4.660502 -13.123417 0
M  V30 35 H 10.575410 9.524565 -4.601533 0
M  V30 36 H 12.042955 9.531425 -5.582276 0
M  V30 37 H 10.308205 5.013921 -11.585027 0
M  V30 END ATOM
M  V30 BEGIN BOND
M  V30 1 1 4 3
M  V30 2 1 7 1
M  V30 3 1 8 4
M  V30 4 1 8 6
M  V30 5 1 10 3
M  V30 6 1 11 1
M  V30 7 1 11 2
M  V30 8 1 13 9
M  V30 9 1 13 12
M  V30 10 2 14 5
M  V30 11 1 14 10
M  V30 12 1 16 14
M  V30 13 1 17 1
M  V30 14 1 17 9
M  V30 15 2 17 16
M  V30 16 1 18 8
M  V30 17 1 18 10
M  V30 18 1 19 11
M  V30 19 1 19 13
M  V30 20 1 19 15
M  V30 21 1 1 20 CFG=3
M  V30 22 1 21 3
M  V30 23 1 22 3
M  V30 24 1 23 4
M  V30 25 1 24 4
M  V30 26 1 25 6
M  V30 27 1 26 7
M  V30 28 1 8 27 CFG=3
M  V30 29 1 28 9
M  V30 30 1 29 9
M  V30 31 1 11 30 CFG=3
M  V30 32 1 13 31 CFG=3
M  V30 33 1 32 15
M  V30 34 1 33 15
M  V30 35 1 34 15
M  V30 36 1 35 18
M  V30 37 1 36 18
M  V30 38 1 19 37 CFG=3
M  V30 END BOND
M  V30 END CTAB
M  END
>  <i_epik_Tot_Q>  (1) 
0

>  <i_epik_Tot_abs_Q>  (1) 
0

>  <i_i_glide_confnum>  (1) 
5

>  <i_i_glide_lignum>  (1) 
161

>  <i_i_glide_posenum>  (1) 
259

>  <i_i_glide_rotatable_bonds>  (1) 
4

>  <i_lp_mmshare_version>  (1) 
72125

>  <i_m_source_file_index>  (1) 
89

>  <i_f3d_flags>  (1) 
0

>  <num_sample>  (1) 
100

>  <b_lp_Chiralities_Consistent>  (1) 
1

>  <r_epik_Charging_Adjusted_Penalty>  (1) 
0.16120785643113181

>  <r_epik_Ionization_Penalty>  (1) 
0.1612079103687071

>  <r_epik_Ionization_Penalty_Charging>  (1) 
0

>  <r_epik_Ionization_Penalty_Neutral>  (1) 
0.1612079103687071

>  <r_epik_State_Penalty>  (1) 
0.16120785643113181

>  <r_glide_ring_energy>  (1) 
0.020324906306446684

>  <r_i_docking_score>  (1) 
-4.9011881284455772

>  <r_i_glide_ecoul>  (1) 
0.092524393291437634

>  <r_i_glide_eff_state_penalty>  (1) 
0.16120785643113181

>  <r_i_glide_einternal>  (1) 
1.6932923040651993

>  <r_i_glide_emodel>  (1) 
-35.880542548833944

>  <r_i_glide_emodel_strain>  (1) 
1.8845046767445268

>  <r_i_glide_energy>  (1) 
-29.732196248760616

>  <r_i_glide_erotb>  (1) 
0.47132455663783185

>  <r_i_glide_esite>  (1) 
-0.24813793125135841

>  <r_i_glide_evdw>  (1) 
-29.824720642052053

>  <r_i_glide_gscore>  (1) 
-5.0623959848767086

>  <r_i_glide_gscore_strain>  (1) 
0

>  <r_i_glide_hbond>  (1) 
-0.011494303210230048

>  <r_i_glide_ligand_efficiency>  (1) 
-0.25795726991818829

>  <r_i_glide_ligand_efficiency_ln>  (1) 
-1.2425564584298177

>  <r_i_glide_ligand_efficiency_sa>  (1) 
-0.68833360434950541

>  <r_i_glide_lipo>  (1) 
-1.3455196236671279

>  <r_i_glide_metal>  (1) 
-0

>  <r_i_glide_rewards>  (1) 
-2.4512113102769373

>  <r_lp_Energy>  (1) 
16.803401000000001

>  <s_epik_Chemistry_Notes>  (1) 
This compound has an imine and may undergo hydrolysis.

>  <s_epik_cmdline>  (1) 
J2VwaWtfcHl0aG9uJywgJy1waHQnLCAnMS4wJywgJy1waCcsICc3LjQnLCAnLXRuJywgJzgnLCAnLW1hJywgJzUwMCcsICctaW1hZScsICc8aW5maWxlLm1hZT4nLCAnLW9tYWUnLCAnPG91dGZpbGUubWFlPic=

>  <s_epik_input>  (1) 
W09IXVtDQEhdMVtDQEBIXShGKVtDQEBIXShbQ0gzXSlbQ0BASF0oRilbQ0gyXUMvMT1OXEMoPU8pTihbQ0gyXTIpW0NIMl1bQ0gyXVtDQEBIXTJbT0hd

>  <s_glide_docking_method>  (1) 
confgen

>  <s_i_glide_gridfile>  (1) 
gpcr_drd2_6luq_protein_autoprepared_prepared

>  <s_lp_Force_Field>  (1) 
S-OPLS

>  <s_lp_Variant>  (1) 
DiffSBDD_88-2

>  <s_m_source_file>  (1) 
generated_generic_title2_ligand_DiffSBDD_2026-06-23_prepared.sdf

>  <GenAI_Model>  (1) 
DiffSBDD

>  <Protein>  (1) 
generic_title2

$$$$
DiffSBDD_38
     RDKit          3D

  0  0  0  0  0  0  0  0  0  0999 V3000
M  V30 BEGIN CTAB
M  V30 COUNTS 86 90 0 0 1
M  V30 BEGIN ATOM
M  V30 1 C 7.626442 5.348141 -13.358465 0 CFG=2
M  V30 2 C 7.315733 2.710431 -17.728697 0
M  V30 3 C 9.894475 6.241995 -10.305478 0
M  V30 4 C 6.809186 2.507598 -14.608318 0
M  V30 5 C 8.118724 -0.638743 -17.138910 0 CFG=1
M  V30 6 C 8.423009 5.989894 -10.611984 0 CFG=2
M  V30 7 C 11.980855 8.560702 -8.520906 0
M  V30 8 F 9.563229 0.220895 -18.988451 0
M  V30 9 C 7.026766 1.488244 -15.498260 0
M  V30 10 C 8.781643 3.187974 -17.614542 0 CFG=2
M  V30 11 C 6.406453 3.927301 -14.990982 0
M  V30 12 O 12.428535 8.797715 -7.182783 0
M  V30 13 C 8.200935 4.540600 -11.063708 0
M  V30 14 C 9.119875 3.989508 -16.329575 0
M  V30 15 C 8.298635 2.765754 -12.807076 0
M  V30 16 O 6.787152 0.901512 -12.785817 0
M  V30 17 C 8.515329 -1.791938 -18.041999 0
M  V30 18 C 6.185606 6.328475 -15.133298 0
M  V30 19 C 8.441341 4.281100 -12.558636 0 CFG=1
M  V30 20 C 11.443304 9.259021 -6.249503 0
M  V30 21 C 6.901773 2.273431 -13.127087 0 CFG=2
M  V30 22 O 5.722276 -0.278630 -19.988270 0
M  V30 23 C 7.236236 5.183538 -14.848928 0 CFG=1
M  V30 24 O 10.169066 7.516378 -9.755396 0
M  V30 25 C 9.285412 3.851022 -18.913057 0
M  V30 26 C 10.170918 8.454943 -6.370012 0
M  V30 27 O 9.775426 4.518716 -12.851424 0
M  V30 28 F 12.993810 8.119975 -9.268579 0
M  V30 29 C 9.431150 -0.611207 -17.890771 0
M  V30 30 F 11.509852 9.669296 -9.091825 0
M  V30 31 N 7.044421 0.253118 -17.597688 0
M  V30 32 C 8.344879 5.273776 -15.964225 0 CFG=2
M  V30 33 C 7.837165 7.045057 -11.585033 0
M  V30 34 F 10.604032 -0.807727 -17.185120 0
M  V30 35 C 9.923708 7.646341 -7.395033 0
M  V30 36 N 7.037326 1.521378 -16.919410 0
M  V30 37 O 7.789830 5.772515 -17.172681 0
M  V30 38 C 5.649834 -0.247842 -17.661662 0 CFG=2
M  V30 39 C 10.885146 7.463599 -8.533362 0 CFG=2
M  V30 40 C 5.146381 -1.028939 -16.441343 0
M  V30 41 C 8.168796 6.759694 -13.026351 0
M  V30 42 O 5.582670 -1.099642 -18.792086 0
M  V30 43 H 6.648848 5.295083 -12.873056 0
M  V30 44 H 7.225524 2.342572 -18.751351 0
M  V30 45 H 6.575526 3.494821 -17.759204 0
M  V30 46 H 10.175346 5.430903 -9.637071 0
M  V30 47 H 10.506594 6.179435 -11.201352 0
M  V30 48 H 8.175806 -0.929305 -16.093742 0
M  V30 49 H 7.903213 5.990258 -9.655438 0
M  V30 50 H 7.243303 0.509813 -15.115615 0
M  V30 51 H 9.386235 2.284109 -17.534320 0
M  V30 52 H 6.175404 4.025825 -15.984926 0
M  V30 53 H 5.486122 4.084310 -14.420137 0
M  V30 54 H 8.832147 3.892678 -10.459809 0
M  V30 55 H 7.174457 4.261701 -10.819646 0
M  V30 56 H 10.186361 4.215911 -16.340036 0
M  V30 57 H 8.975381 3.310372 -15.515765 0
M  V30 58 H 8.975418 2.431030 -13.584779 0
M  V30 59 H 8.710124 2.209864 -11.985048 0
M  V30 60 H 5.926557 0.592181 -13.026825 0
M  V30 61 H 8.797770 -2.721279 -17.550752 0
M  V30 62 H 8.009876 -1.905762 -18.997480 0
M  V30 63 H 6.654699 7.283529 -15.366302 0
M  V30 64 H 5.542974 6.117112 -15.989332 0
M  V30 65 H 5.505138 6.499475 -14.297661 0
M  V30 66 H 11.228689 10.318502 -6.385328 0
M  V30 67 H 11.838242 9.145858 -5.239804 0
M  V30 68 H 6.137747 2.825920 -12.579300 0
M  V30 69 H 6.663164 -0.246820 -20.073146 0
M  V30 70 H 8.673438 4.693748 -19.231632 0
M  V30 71 H 10.308557 4.207619 -18.797888 0
M  V30 72 H 9.286689 3.134958 -19.734605 0
M  V30 73 H 9.446348 8.557868 -5.585101 0
M  V30 74 H 10.316823 3.818021 -12.519883 0
M  V30 75 H 9.085957 5.990733 -15.622895 0
M  V30 76 H 8.175410 8.047165 -11.315322 0
M  V30 77 H 6.748695 7.057767 -11.507578 0
M  V30 78 H 8.995748 7.092136 -7.439252 0
M  V30 79 H 7.136021 5.163298 -17.473455 0
M  V30 80 H 4.976329 0.591086 -17.846774 0
M  V30 81 H 11.374905 6.507260 -8.355860 0
M  V30 82 H 5.169636 -0.437895 -15.527519 0
M  V30 83 H 4.112897 -1.326820 -16.597791 0
M  V30 84 H 5.725476 -1.936832 -16.279604 0
M  V30 85 H 9.240046 6.830079 -13.184800 0
M  V30 86 H 7.742210 7.569440 -13.610086 0
M  V30 END ATOM
M  V30 BEGIN BOND
M  V30 1 1 6 3
M  V30 2 2 9 4
M  V30 3 1 10 2
M  V30 4 1 11 4
M  V30 5 1 12 7
M  V30 6 1 13 6
M  V30 7 1 14 10
M  V30 8 1 17 5
M  V30 9 1 19 1
M  V30 10 1 19 13
M  V30 11 1 19 15
M  V30 12 1 20 12
M  V30 13 1 21 4
M  V30 14 1 21 15
M  V30 15 1 21 16
M  V30 16 1 23 1
M  V30 17 1 23 11
M  V30 18 1 23 18 CFG=3
M  V30 19 1 24 3
M  V30 20 1 25 10
M  V30 21 1 26 20
M  V30 22 1 19 27 CFG=1
M  V30 23 1 28 7
M  V30 24 1 29 5
M  V30 25 1 29 8
M  V30 26 1 29 17
M  V30 27 1 30 7
M  V30 28 1 31 5
M  V30 29 1 32 14
M  V30 30 1 32 23
M  V30 31 1 33 6
M  V30 32 1 34 29
M  V30 33 2 35 26
M  V30 34 1 36 2
M  V30 35 1 36 9
M  V30 36 1 36 31
M  V30 37 1 37 32
M  V30 38 1 38 31
M  V30 39 1 39 7
M  V30 40 1 39 24
M  V30 41 1 39 35
M  V30 42 1 40 38
M  V30 43 1 41 1
M  V30 44 1 41 33
M  V30 45 1 42 22
M  V30 46 1 42 38
M  V30 47 1 1 43 CFG=1
M  V30 48 1 44 2
M  V30 49 1 45 2
M  V30 50 1 46 3
M  V30 51 1 47 3
M  V30 52 1 5 48 CFG=1
M  V30 53 1 6 49 CFG=1
M  V30 54 1 50 9
M  V30 55 1 10 51 CFG=1
M  V30 56 1 52 11
M  V30 57 1 53 11
M  V30 58 1 54 13
M  V30 59 1 55 13
M  V30 60 1 56 14
M  V30 61 1 57 14
M  V30 62 1 58 15
M  V30 63 1 59 15
M  V30 64 1 60 16
M  V30 65 1 61 17
M  V30 66 1 62 17
M  V30 67 1 63 18
M  V30 68 1 64 18
M  V30 69 1 65 18
M  V30 70 1 66 20
M  V30 71 1 67 20
M  V30 72 1 21 68 CFG=1
M  V30 73 1 69 22
M  V30 74 1 70 25
M  V30 75 1 71 25
M  V30 76 1 72 25
M  V30 77 1 73 26
M  V30 78 1 74 27
M  V30 79 1 32 75 CFG=1
M  V30 80 1 76 33
M  V30 81 1 77 33
M  V30 82 1 78 35
M  V30 83 1 79 37
M  V30 84 1 38 80 CFG=3
M  V30 85 1 39 81 CFG=1
M  V30 86 1 82 40
M  V30 87 1 83 40
M  V30 88 1 84 40
M  V30 89 1 85 41
M  V30 90 1 86 41
M  V30 END BOND
M  V30 END CTAB
M  END
>  <i_epik_Tot_Q>  (1) 
0

>  <i_epik_Tot_abs_Q>  (1) 
0

>  <i_i_glide_confnum>  (1) 
265

>  <i_i_glide_lignum>  (1) 
64

>  <i_i_glide_posenum>  (1) 
337

>  <i_i_glide_rotatable_bonds>  (1) 
11

>  <i_lp_mmshare_version>  (1) 
72125

>  <i_m_source_file_index>  (1) 
39

>  <i_f3d_flags>  (1) 
0

>  <num_sample>  (1) 
100

>  <b_lp_Chiralities_Consistent>  (1) 
1

>  <r_epik_Charging_Adjusted_Penalty>  (1) 
0

>  <r_epik_Ionization_Penalty>  (1) 
2.4228423565681287e-05

>  <r_epik_Ionization_Penalty_Charging>  (1) 
0

>  <r_epik_Ionization_Penalty_Neutral>  (1) 
2.4228423565681287e-05

>  <r_epik_State_Penalty>  (1) 
-0

>  <r_glide_ring_energy>  (1) 
0.27259175540770147

>  <r_i_docking_score>  (1) 
-4.8944100499741428

>  <r_i_glide_ecoul>  (1) 
-1.14665760529802

>  <r_i_glide_eff_state_penalty>  (1) 
-0

>  <r_i_glide_einternal>  (1) 
8.1253402037829368

>  <r_i_glide_emodel>  (1) 
-37.971042329033409

>  <r_i_glide_emodel_strain>  (1) 
2.9132010916489435

>  <r_i_glide_energy>  (1) 
-23.04450899516042

>  <r_i_glide_erotb>  (1) 
0.27413222911568258

>  <r_i_glide_esite>  (1) 
-0.0078481716759802537

>  <r_i_glide_evdw>  (1) 
-21.897851389862399

>  <r_i_glide_gscore>  (1) 
-4.8944100499741428

>  <r_i_glide_gscore_strain>  (1) 
0

>  <r_i_glide_hbond>  (1) 
-0.015263569747667047

>  <r_i_glide_ligand_efficiency>  (1) 
-0.11653357261843197

>  <r_i_glide_ligand_efficiency_ln>  (1) 
-1.0330838670315656

>  <r_i_glide_ligand_efficiency_sa>  (1) 
-0.40507380344547961

>  <r_i_glide_lipo>  (1) 
-2.5094142549551557

>  <r_i_glide_metal>  (1) 
-0

>  <r_i_glide_rewards>  (1) 
-1.3691250724231994

>  <r_lp_Energy>  (1) 
66.758932000000001

>  <r_lp_tautomer_probability>  (1) 
1

>  <s_epik_Chemistry_Notes>  (1) 
This compound contains an acetal/aminal-like group ( X-CH(R)-Y where X, Y are N, S, or O) that may be acid/base labile, releasing an aldehyde.

>  <s_epik_cmdline>  (1) 
J2VwaWtfcHl0aG9uJywgJy1waHQnLCAnMS4wJywgJy1waCcsICc3LjQnLCAnLXRuJywgJzgnLCAnLW1hJywgJzUwMCcsICctaW1hZScsICc8aW5maWxlLm1hZT4nLCAnLW9tYWUnLCAnPG91dGZpbGUubWFlPic=

>  <s_epik_input>  (1) 
W09IXVtDQEBIXTFbQ0gyXVtDQEhdKFtDSDNdKVtDSDJdTihOKFtDQEBIXShbQ0gyXTIpQzIoRilGKVtDQEhdKFtDSDNdKU9bT0hdKS9bQ0hdPUMoW0NASF0oW0NIMl0zKVtPSF0pXFtDSDJdW0NAQF0xKFtDSDNdKVtDQEBIXShbQ0BdMzRbT0hdKVtDSDJdW0NIMl1bQ0BASF0oW0NIMl00KVtDSDJdT1tDQEBIXTVbQ0hdPVtDSF1bQ0gyXU9DNShGKUY=

>  <s_glide_docking_method>  (1) 
confgen

>  <s_i_glide_gridfile>  (1) 
gpcr_drd2_6luq_protein_autoprepared_prepared

>  <s_lp_Force_Field>  (1) 
S-OPLS

>  <s_lp_Variant>  (1) 
DiffSBDD_38-1

>  <s_m_source_file>  (1) 
generated_generic_title2_ligand_DiffSBDD_2026-06-23_prepared.sdf

>  <GenAI_Model>  (1) 
DiffSBDD

>  <Protein>  (1) 
generic_title2

$$$$
DiffSBDD_47
     RDKit          3D

  0  0  0  0  0  0  0  0  0  0999 V3000
M  V30 BEGIN CTAB
M  V30 COUNTS 52 54 0 0 1
M  V30 BEGIN ATOM
M  V30 1 C 8.547364 5.495034 -11.421645 0
M  V30 2 C 6.525573 1.073548 -15.387651 0
M  V30 3 O 8.353612 5.950295 -13.769309 0
M  V30 4 C 10.930053 7.335632 -7.913964 0 CFG=2
M  V30 5 C 10.884198 8.363688 -5.490216 0 CFG=2
M  V30 6 N 7.528584 3.968237 -13.005236 0
M  V30 7 C 9.912213 6.752154 -9.834717 0
M  V30 8 O 10.975324 10.628123 -4.784903 0
M  V30 9 C 10.925830 7.738508 -9.462043 0
M  V30 10 C 7.981252 4.790216 -10.323422 0
M  V30 11 C 12.115250 7.477237 -3.376455 0
M  V30 12 C 9.373715 6.074643 -8.801355 0
M  V30 13 O 7.650834 4.696065 -16.319409 0
M  V30 14 O 12.575625 6.809305 -2.454822 0
M  V30 15 C 11.724204 9.437994 -4.773188 0 CFG=1
M  V30 16 C 12.106326 8.996297 -3.350071 0
M  V30 17 C 8.125865 5.169942 -12.843884 0
M  V30 18 C 9.525580 6.501350 -11.163432 0
M  V30 19 C 8.397793 5.089783 -9.005580 0
M  V30 20 C 8.153459 3.684463 -15.471496 0
M  V30 21 O 9.835112 6.405352 -7.577457 0
M  V30 22 C 8.009891 1.138519 -13.370534 0
M  V30 23 S 11.375436 6.747655 -4.842424 0
M  V30 24 O 10.103325 7.196788 -12.184460 0
M  V30 25 C 10.907846 8.575308 -7.021889 0
M  V30 26 C 6.876228 1.873863 -14.112861 0
M  V30 27 C 7.136679 3.405012 -14.318183 0 CFG=1
M  V30 28 H 7.412316 0.824389 -15.970021 0
M  V30 29 H 6.057732 0.123962 -15.121677 0
M  V30 30 H 5.840112 1.590251 -16.054653 0
M  V30 31 H 11.850675 6.790108 -7.715665 0
M  V30 32 H 9.843802 8.407583 -5.185032 0
M  V30 33 H 7.385702 3.388867 -12.192980 0
M  V30 34 H 11.522579 11.351478 -4.522183 0
M  V30 35 H 11.883394 7.574350 -9.956847 0
M  V30 36 H 10.557647 8.747150 -9.651897 0
M  V30 37 H 7.233914 4.029468 -10.487542 0
M  V30 38 H 7.631651 5.499392 -15.815929 0
M  V30 39 H 12.652731 9.607796 -5.321211 0
M  V30 40 H 11.374197 9.323288 -2.612905 0
M  V30 41 H 13.077044 9.391214 -3.050717 0
M  V30 42 H 7.972555 4.561011 -8.165153 0
M  V30 43 H 9.135177 3.990281 -15.113564 0
M  V30 44 H 8.330826 2.811958 -16.095132 0
M  V30 45 H 8.945381 1.176831 -13.926826 0
M  V30 46 H 8.196278 1.557173 -12.385209 0
M  V30 47 H 7.758454 0.087648 -13.223995 0
M  V30 48 H 9.685924 6.974717 -13.009028 0
M  V30 49 H 11.772808 9.175761 -7.302400 0
M  V30 50 H 10.044104 9.189930 -7.281904 0
M  V30 51 H 5.996454 1.808429 -13.470487 0
M  V30 52 H 6.177650 3.854398 -14.582267 0
M  V30 END ATOM
M  V30 BEGIN BOND
M  V30 1 1 9 4
M  V30 2 1 9 7
M  V30 3 1 10 1
M  V30 4 2 12 7
M  V30 5 2 14 11
M  V30 6 1 15 5
M  V30 7 1 15 8
M  V30 8 1 16 11
M  V30 9 1 16 15
M  V30 10 1 17 1
M  V30 11 2 17 3
M  V30 12 1 17 6
M  V30 13 2 18 1
M  V30 14 1 18 7
M  V30 15 2 19 10
M  V30 16 1 19 12
M  V30 17 1 20 13
M  V30 18 1 21 4
M  V30 19 1 21 12
M  V30 20 1 23 5
M  V30 21 1 23 11
M  V30 22 1 24 18
M  V30 23 1 25 4
M  V30 24 1 25 5
M  V30 25 1 26 2
M  V30 26 1 26 22
M  V30 27 1 27 6
M  V30 28 1 27 20
M  V30 29 1 27 26
M  V30 30 1 28 2
M  V30 31 1 29 2
M  V30 32 1 30 2
M  V30 33 1 4 31 CFG=1
M  V30 34 1 5 32 CFG=1
M  V30 35 1 33 6
M  V30 36 1 34 8
M  V30 37 1 35 9
M  V30 38 1 36 9
M  V30 39 1 37 10
M  V30 40 1 38 13
M  V30 41 1 15 39 CFG=3
M  V30 42 1 40 16
M  V30 43 1 41 16
M  V30 44 1 42 19
M  V30 45 1 43 20
M  V30 46 1 44 20
M  V30 47 1 45 22
M  V30 48 1 46 22
M  V30 49 1 47 22
M  V30 50 1 48 24
M  V30 51 1 49 25
M  V30 52 1 50 25
M  V30 53 1 51 26
M  V30 54 1 27 52 CFG=3
M  V30 END BOND
M  V30 END CTAB
M  END
>  <i_epik_Tot_Q>  (1) 
0

>  <i_epik_Tot_abs_Q>  (1) 
0

>  <i_i_glide_confnum>  (1) 
18

>  <i_i_glide_lignum>  (1) 
76

>  <i_i_glide_posenum>  (1) 
197

>  <i_i_glide_rotatable_bonds>  (1) 
10

>  <i_lp_mmshare_version>  (1) 
72125

>  <i_m_source_file_index>  (1) 
48

>  <i_f3d_flags>  (1) 
0

>  <num_sample>  (1) 
100

>  <b_lp_Chiralities_Consistent>  (1) 
1

>  <r_epik_Charging_Adjusted_Penalty>  (1) 
0.019901406152345185

>  <r_epik_Ionization_Penalty>  (1) 
0.019911706661848872

>  <r_epik_Ionization_Penalty_Charging>  (1) 
0

>  <r_epik_Ionization_Penalty_Neutral>  (1) 
0.019911706661848872

>  <r_epik_State_Penalty>  (1) 
0.019901406152345185

>  <r_glide_ring_energy>  (1) 
0

>  <r_i_docking_score>  (1) 
-4.8872834023329856

>  <r_i_glide_ecoul>  (1) 
1.6861667763623014

>  <r_i_glide_eff_state_penalty>  (1) 
0.019901406152345185

>  <r_i_glide_einternal>  (1) 
11.666116720792996

>  <r_i_glide_emodel>  (1) 
-35.364397543363999

>  <r_i_glide_emodel_strain>  (1) 
5.4633532726537055

>  <r_i_glide_energy>  (1) 
-36.996965908689305

>  <r_i_glide_erotb>  (1) 
0.75018821045154971

>  <r_i_glide_esite>  (1) 
0

>  <r_i_glide_evdw>  (1) 
-38.683132685051604

>  <r_i_glide_gscore>  (1) 
-4.9071848084853311

>  <r_i_glide_gscore_strain>  (1) 
0.36583831816342638

>  <r_i_glide_hbond>  (1) 
0

>  <r_i_glide_ligand_efficiency>  (1) 
-0.18101049638270317

>  <r_i_glide_ligand_efficiency_ln>  (1) 
-1.1376790028990966

>  <r_i_glide_ligand_efficiency_sa>  (1) 
-0.54303148914810961

>  <r_i_glide_lipo>  (1) 
-2.3728699539964873

>  <r_i_glide_metal>  (1) 
-0

>  <r_i_glide_rewards>  (1) 
-1.9691097653055856

>  <r_lp_Energy>  (1) 
10.170142999999999

>  <r_lp_tautomer_probability>  (1) 
1

>  <s_epik_cmdline>  (1) 
J2VwaWtfcHl0aG9uJywgJy1waHQnLCAnMS4wJywgJy1waCcsICc3LjQnLCAnLXRuJywgJzgnLCAnLW1hJywgJzUwMCcsICctaW1hZScsICc8aW5maWxlLm1hZT4nLCAnLW9tYWUnLCAnPG91dGZpbGUubWFlPic=

>  <s_epik_input>  (1) 
W0NIM11bQ0hdKFtDSDNdKVtDQEhdKFtDSDJdW09IXSlbTkhdQyg9TyljKGMxW09IXSlbY0hdW2NIXWMoYzEyKU9bQ0BASF0oW0NIMl0yKVtDSDJdW0NAQEhdM1tDQEBIXShbT0hdKVtDSDJdQyg9TylTMw==

>  <s_glide_docking_method>  (1) 
confgen

>  <s_i_glide_gridfile>  (1) 
gpcr_drd2_6luq_protein_autoprepared_prepared

>  <s_lp_Force_Field>  (1) 
S-OPLS

>  <s_lp_Variant>  (1) 
DiffSBDD_47-1

>  <s_m_source_file>  (1) 
generated_generic_title2_ligand_DiffSBDD_2026-06-23_prepared.sdf

>  <GenAI_Model>  (1) 
DiffSBDD

>  <Protein>  (1) 
generic_title2

$$$$
DiffSBDD_18
     RDKit          3D

  0  0  0  0  0  0  0  0  0  0999 V3000
M  V30 BEGIN CTAB
M  V30 COUNTS 38 39 0 0 1
M  V30 BEGIN ATOM
M  V30 1 C 11.444823 6.586875 -3.965000 0
M  V30 2 C 11.775408 6.790227 -2.609895 0
M  V30 3 O 10.789634 6.340687 -6.736937 0
M  V30 4 S 9.808209 8.390227 -9.143743 0
M  V30 5 C 7.507506 5.880045 -15.410587 0
M  V30 6 C 9.845294 7.508052 -10.716645 0
M  V30 7 N 8.575410 7.256362 -11.185025 0
M  V30 8 C 6.819983 6.991545 -14.600378 0
M  V30 9 C 11.254181 7.410166 -6.350601 0
M  V30 10 C 7.101701 5.590901 -12.369365 0 CFG=2
M  V30 11 C 11.926016 8.939953 -4.427451 0
M  V30 12 C 8.275713 6.559475 -12.389720 0 CFG=1
M  V30 13 N 11.600531 8.411573 -7.180327 0
M  V30 14 C 11.530418 7.656674 -4.883724 0
M  V30 15 C 12.242509 9.136153 -3.070372 0
M  V30 16 C 12.175407 8.063777 -2.165947 0
M  V30 17 O 10.902557 7.190227 -11.260488 0
M  V30 18 C 11.531892 8.281797 -8.632846 0
M  V30 19 C 6.966559 6.905169 -13.086863 0 CFG=1
M  V30 20 O 6.326408 5.559142 -11.185023 0
M  V30 21 H 11.147819 5.604256 -4.304094 0
M  V30 22 H 11.721170 5.967281 -1.912135 0
M  V30 23 H 7.362206 6.041256 -16.478859 0
M  V30 24 H 8.581554 5.850729 -15.231551 0
M  V30 25 H 7.095832 4.897709 -15.180563 0
M  V30 26 H 7.801943 7.590231 -10.592801 0
M  V30 27 H 5.754990 6.992284 -14.834220 0
M  V30 28 H 7.200684 7.962821 -14.916325 0
M  V30 29 H 7.147638 4.651460 -12.915283 0
M  V30 30 H 11.997807 9.768080 -5.115665 0
M  V30 31 H 9.117313 6.278662 -13.019868 0
M  V30 32 H 11.982288 9.261440 -6.797942 0
M  V30 33 H 12.547830 10.106944 -2.723372 0
M  V30 34 H 12.428287 8.220231 -1.130359 0
M  V30 35 H 11.967229 7.328840 -8.936751 0
M  V30 36 H 12.106786 9.074348 -9.112388 0
M  V30 37 H 6.357160 7.650891 -12.579551 0
M  V30 38 H 6.575415 6.273729 -10.608526 0
M  V30 END ATOM
M  V30 BEGIN BOND
M  V30 1 1 2 1
M  V30 2 1 6 4
M  V30 3 1 7 6
M  V30 4 1 8 5
M  V30 5 2 9 3
M  V30 6 1 12 7
M  V30 7 1 12 10
M  V30 8 1 13 9
M  V30 9 2 14 1
M  V30 10 1 14 9
M  V30 11 1 14 11
M  V30 12 2 15 11
M  V30 13 2 16 2
M  V30 14 1 16 15
M  V30 15 2 17 6
M  V30 16 1 18 4
M  V30 17 1 18 13
M  V30 18 1 19 8
M  V30 19 1 19 10
M  V30 20 1 19 12
M  V30 21 1 20 10
M  V30 22 1 21 1
M  V30 23 1 22 2
M  V30 24 1 23 5
M  V30 25 1 24 5
M  V30 26 1 25 5
M  V30 27 1 26 7
M  V30 28 1 27 8
M  V30 29 1 28 8
M  V30 30 1 10 29 CFG=3
M  V30 31 1 30 11
M  V30 32 1 12 31 CFG=3
M  V30 33 1 32 13
M  V30 34 1 33 15
M  V30 35 1 34 16
M  V30 36 1 35 18
M  V30 37 1 36 18
M  V30 38 1 19 37 CFG=1
M  V30 39 1 38 20
M  V30 END BOND
M  V30 END CTAB
M  END
>  <i_epik_Tot_Q>  (1) 
0

>  <i_epik_Tot_abs_Q>  (1) 
0

>  <i_i_glide_confnum>  (1) 
13

>  <i_i_glide_lignum>  (1) 
35

>  <i_i_glide_posenum>  (1) 
300

>  <i_i_glide_rotatable_bonds>  (1) 
9

>  <i_lp_mmshare_version>  (1) 
72125

>  <i_m_source_file_index>  (1) 
19

>  <i_f3d_flags>  (1) 
0

>  <num_sample>  (1) 
100

>  <b_lp_Chiralities_Consistent>  (1) 
1

>  <r_epik_Charging_Adjusted_Penalty>  (1) 
0

>  <r_epik_Ionization_Penalty>  (1) 
2.0525633642560989e-05

>  <r_epik_Ionization_Penalty_Charging>  (1) 
0

>  <r_epik_Ionization_Penalty_Neutral>  (1) 
2.0525633642560989e-05

>  <r_epik_State_Penalty>  (1) 
-0

>  <r_glide_ring_energy>  (1) 
0

>  <r_i_docking_score>  (1) 
-4.8835491869775156

>  <r_i_glide_ecoul>  (1) 
-8.3308555341544963

>  <r_i_glide_eff_state_penalty>  (1) 
-0

>  <r_i_glide_einternal>  (1) 
2.8432326921298383

>  <r_i_glide_emodel>  (1) 
-48.957469365551425

>  <r_i_glide_emodel_strain>  (1) 
0.19143773743625303

>  <r_i_glide_energy>  (1) 
-36.285299942032502

>  <r_i_glide_erotb>  (1) 
2.5324251451788915

>  <r_i_glide_esite>  (1) 
-0.18022829027075418

>  <r_i_glide_evdw>  (1) 
-27.954444407878007

>  <r_i_glide_gscore>  (1) 
-4.8835491869775156

>  <r_i_glide_gscore_strain>  (1) 
0

>  <r_i_glide_hbond>  (1) 
-0.28701658908286037

>  <r_i_glide_ligand_efficiency>  (1) 
-0.24417745934887577

>  <r_i_glide_ligand_efficiency_ln>  (1) 
-1.2221912912683359

>  <r_i_glide_ligand_efficiency_sa>  (1) 
-0.66279959723197512

>  <r_i_glide_lipo>  (1) 
-2.256848114754856

>  <r_i_glide_metal>  (1) 
-0

>  <r_i_glide_rewards>  (1) 
-2.0445307875308631

>  <r_lp_Energy>  (1) 
17.985703999999998

>  <r_lp_tautomer_probability>  (1) 
1

>  <s_epik_Chemistry_Notes>  (1) 
This compound contains an acetal/aminal-like group ( X-CH(R)-Y where X, Y are N, S, or O) that may be acid/base labile, releasing an aldehyde.

>  <s_epik_cmdline>  (1) 
J2VwaWtfcHl0aG9uJywgJy1waHQnLCAnMS4wJywgJy1waCcsICc3LjQnLCAnLXRuJywgJzgnLCAnLW1hJywgJzUwMCcsICctaW1hZScsICc8aW5maWxlLm1hZT4nLCAnLW9tYWUnLCAnPG91dGZpbGUubWFlPic=

>  <s_epik_input>  (1) 
W2NIXTFbY0hdW2NIXVtjSF1bY0hdYzFDKD1PKVtOSF1bQ0gyXVNDKD1PKVtOSF1bQ0BASF0oW0NIXTJbT0hdKVtDQEhdMltDSDJdW0NIM10=

>  <s_glide_docking_method>  (1) 
confgen

>  <s_i_glide_gridfile>  (1) 
gpcr_drd2_6luq_protein_autoprepared_prepared

>  <s_lp_Force_Field>  (1) 
S-OPLS

>  <s_lp_Variant>  (1) 
DiffSBDD_18-2

>  <s_m_source_file>  (1) 
generated_generic_title2_ligand_DiffSBDD_2026-06-23_prepared.sdf

>  <GenAI_Model>  (1) 
DiffSBDD

>  <Protein>  (1) 
generic_title2

$$$$
DiffSBDD_1
     RDKit          3D

  0  0  0  0  0  0  0  0  0  0999 V3000
M  V30 BEGIN CTAB
M  V30 COUNTS 73 75 0 0 1
M  V30 BEGIN ATOM
M  V30 1 F 10.773479 2.052477 -19.313450 0
M  V30 2 C 12.035934 8.205289 -8.951945 0
M  V30 3 C 12.192126 4.716075 -17.217686 0
M  V30 4 C 11.060271 3.362918 -19.227122 0
M  V30 5 C 8.903081 6.783561 -12.482369 0 CFG=1
M  V30 6 C 9.607966 6.665435 -19.358754 0
M  V30 7 F 13.255384 4.302870 -19.297617 0
M  V30 8 C 10.893654 8.397259 -5.907069 0
M  V30 9 C 10.216149 5.968705 -18.132417 0 CFG=1
M  V30 10 C 11.566989 6.118932 -17.449259 0
M  V30 11 C 9.807144 6.650868 -11.229419 0
M  V30 12 C 9.078409 5.446021 -17.184773 0 CFG=1
M  V30 13 C 8.630363 3.160623 -12.900907 0
M  V30 14 O 8.975333 8.788226 -10.415904 0
M  V30 15 C 8.471620 5.586177 -14.784771 0
M  V30 16 C 8.987732 5.499372 -13.330549 0 CFG=2
M  V30 17 C 10.763922 7.856565 -9.167091 0
M  V30 18 C 9.877697 7.335294 -8.049939 0
M  V30 19 N 10.267183 4.208671 -19.775247 0
M  V30 20 C 7.639864 2.638948 -13.962139 0
M  V30 21 O 5.769728 -0.409234 -12.190203 0
M  V30 22 O 8.508202 4.215137 -17.558597 0
M  V30 23 C 7.868693 1.204651 -14.380538 0
M  V30 24 C 12.346436 3.787420 -18.466592 0 CFG=1
M  V30 25 C 5.708739 0.320770 -13.382043 0
M  V30 26 C 10.123766 7.976041 -10.534915 0 CFG=1
M  V30 27 C 7.024504 0.189765 -14.128658 0
M  V30 28 O 7.282245 5.813907 -15.015497 0
M  V30 29 C 10.597694 5.592653 -19.580906 0 CFG=1
M  V30 30 O 7.541390 7.035901 -12.196524 0
M  V30 31 C 12.112206 9.055746 -6.559194 0
M  V30 32 N 9.388757 5.396491 -15.752022 0
M  V30 33 C 9.695293 8.319277 -6.871207 0
M  V30 34 C 12.713187 8.123673 -7.611644 0
M  V30 35 O 8.317534 4.494883 -12.571524 0
M  V30 36 H 12.635271 8.573291 -9.761173 0
M  V30 37 H 13.176205 4.855958 -16.767575 0
M  V30 38 H 11.613599 4.180821 -16.465757 0
M  V30 39 H 9.222617 7.661823 -13.035965 0
M  V30 40 H 8.581700 6.449058 -19.647704 0
M  V30 41 H 9.932127 7.683719 -19.565839 0
M  V30 42 H 11.165491 7.396278 -5.558932 0
M  V30 43 H 10.617993 8.962726 -5.014654 0
M  V30 44 H 12.234067 6.713339 -18.076850 0
M  V30 45 H 11.478008 6.688338 -16.524008 0
M  V30 46 H 9.417572 5.900301 -10.546775 0
M  V30 47 H 10.778026 6.270969 -11.576277 0
M  V30 48 H 8.241308 6.133735 -17.315282 0
M  V30 49 H 8.561657 2.564513 -11.988508 0
M  V30 50 H 9.672983 3.125736 -13.178252 0
M  V30 51 H 8.266013 8.303353 -9.985014 0
M  V30 52 H 10.049820 5.251862 -13.407441 0
M  V30 53 H 8.905490 7.122443 -8.468480 0
M  V30 54 H 10.269235 6.376621 -7.697090 0
M  V30 55 H 7.709291 3.181976 -14.900147 0
M  V30 56 H 6.635334 2.846989 -13.619823 0
M  V30 57 H 5.601485 -1.319305 -12.450860 0
M  V30 58 H 7.917303 4.371281 -18.279444 0
M  V30 59 H 8.782343 1.009553 -14.919663 0
M  V30 60 H 12.806975 2.866426 -18.116635 0
M  V30 61 H 4.907601 -0.083287 -13.996821 0
M  V30 62 H 5.411614 1.331385 -13.140417 0
M  V30 63 H 10.854598 8.455108 -11.184029 0
M  V30 64 H 7.279676 -0.801543 -14.475904 0
M  V30 65 H 11.534836 5.895721 -20.049072 0
M  V30 66 H 7.302254 6.634506 -11.371843 0
M  V30 67 H 12.867367 9.271099 -5.795441 0
M  V30 68 H 11.836061 10.011787 -7.009525 0
M  V30 69 H 10.347355 5.214476 -15.485830 0
M  V30 70 H 8.823804 8.004339 -6.302238 0
M  V30 71 H 9.455933 9.319758 -7.225771 0
M  V30 72 H 12.644972 7.101305 -7.254926 0
M  V30 73 H 13.767048 8.353705 -7.750959 0
M  V30 END ATOM
M  V30 BEGIN BOND
M  V30 1 1 4 1
M  V30 2 1 9 6 CFG=3
M  V30 3 1 10 3
M  V30 4 1 10 9
M  V30 5 1 11 5
M  V30 6 1 12 9
M  V30 7 1 16 5
M  V30 8 1 16 15
M  V30 9 2 17 2
M  V30 10 1 18 17
M  V30 11 2 19 4
M  V30 12 1 20 13
M  V30 13 1 22 12
M  V30 14 1 23 20
M  V30 15 1 24 3
M  V30 16 1 24 4
M  V30 17 1 24 7
M  V30 18 1 25 21
M  V30 19 1 26 11
M  V30 20 1 26 14
M  V30 21 1 26 17
M  V30 22 2 27 23
M  V30 23 1 27 25
M  V30 24 2 28 15
M  V30 25 1 29 6
M  V30 26 1 29 9
M  V30 27 1 29 19
M  V30 28 1 30 5
M  V30 29 1 31 8
M  V30 30 1 32 12
M  V30 31 1 32 15
M  V30 32 1 33 8
M  V30 33 1 33 18
M  V30 34 1 34 2
M  V30 35 1 34 31
M  V30 36 1 35 13
M  V30 37 1 35 16
M  V30 38 1 36 2
M  V30 39 1 37 3
M  V30 40 1 38 3
M  V30 41 1 5 39 CFG=3
M  V30 42 1 40 6
M  V30 43 1 41 6
M  V30 44 1 42 8
M  V30 45 1 43 8
M  V30 46 1 44 10
M  V30 47 1 45 10
M  V30 48 1 46 11
M  V30 49 1 47 11
M  V30 50 1 12 48 CFG=1
M  V30 51 1 49 13
M  V30 52 1 50 13
M  V30 53 1 51 14
M  V30 54 1 16 52 CFG=3
M  V30 55 1 53 18
M  V30 56 1 54 18
M  V30 57 1 55 20
M  V30 58 1 56 20
M  V30 59 1 57 21
M  V30 60 1 58 22
M  V30 61 1 59 23
M  V30 62 1 24 60 CFG=1
M  V30 63 1 61 25
M  V30 64 1 62 25
M  V30 65 1 26 63 CFG=3
M  V30 66 1 64 27
M  V30 67 1 29 65 CFG=1
M  V30 68 1 66 30
M  V30 69 1 67 31
M  V30 70 1 68 31
M  V30 71 1 69 32
M  V30 72 1 70 33
M  V30 73 1 71 33
M  V30 74 1 72 34
M  V30 75 1 73 34
M  V30 END BOND
M  V30 END CTAB
M  END
>  <i_epik_Tot_Q>  (1) 
0

>  <i_epik_Tot_abs_Q>  (1) 
0

>  <i_i_glide_confnum>  (1) 
1778

>  <i_i_glide_lignum>  (1) 
2

>  <i_i_glide_posenum>  (1) 
63

>  <i_i_glide_rotatable_bonds>  (1) 
17

>  <i_lp_mmshare_version>  (1) 
72125

>  <i_m_source_file_index>  (1) 
2

>  <i_f3d_flags>  (1) 
0

>  <num_sample>  (1) 
100

>  <b_lp_Chiralities_Consistent>  (1) 
1

>  <r_epik_Charging_Adjusted_Penalty>  (1) 
0

>  <r_epik_Ionization_Penalty>  (1) 
3.3646854675809213e-05

>  <r_epik_Ionization_Penalty_Charging>  (1) 
0

>  <r_epik_Ionization_Penalty_Neutral>  (1) 
3.3646854675809213e-05

>  <r_epik_State_Penalty>  (1) 
-0

>  <r_glide_ring_energy>  (1) 
0.00078572505473429135

>  <r_i_docking_score>  (1) 
-4.8742460001694639

>  <r_i_glide_ecoul>  (1) 
-13.091700056585434

>  <r_i_glide_eff_state_penalty>  (1) 
-0

>  <r_i_glide_einternal>  (1) 
14.37667891090048

>  <r_i_glide_emodel>  (1) 
-32.098371284669021

>  <r_i_glide_emodel_strain>  (1) 
1.6581660023523881

>  <r_i_glide_energy>  (1) 
-30.478172488281025

>  <r_i_glide_erotb>  (1) 
0.89639897310018468

>  <r_i_glide_esite>  (1) 
0

>  <r_i_glide_evdw>  (1) 
-17.386472431695591

>  <r_i_glide_gscore>  (1) 
-4.8742460001694639

>  <r_i_glide_gscore_strain>  (1) 
0

>  <r_i_glide_hbond>  (1) 
-0.31046010462728252

>  <r_i_glide_ligand_efficiency>  (1) 
-0.13926417143341324

>  <r_i_glide_ligand_efficiency_ln>  (1) 
-1.0700051750986914

>  <r_i_glide_ligand_efficiency_sa>  (1) 
-0.45554233939216637

>  <r_i_glide_lipo>  (1) 
-1.7936680371839144

>  <r_i_glide_metal>  (1) 
-0

>  <r_i_glide_rewards>  (1) 
-0.833438201385856

>  <r_lp_Energy>  (1) 
34.404662999999999

>  <r_lp_tautomer_probability>  (1) 
1

>  <s_epik_Chemistry_Notes>  (1) 
This compound has an imine and may undergo hydrolysis. This compound contains an acetal/aminal-like group ( X-CH(R)-Y where X, Y are N, S, or O) that may be acid/base labile, releasing an aldehyde.

>  <s_epik_cmdline>  (1) 
J2VwaWtfcHl0aG9uJywgJy1waHQnLCAnMS4wJywgJy1waCcsICc3LjQnLCAnLXRuJywgJzgnLCAnLW1hJywgJzUwMCcsICctaW1hZScsICc8aW5maWxlLm1hZT4nLCAnLW9tYWUnLCAnPG91dGZpbGUubWFlPic=

>  <s_epik_input>  (1) 
W0NIMl0xW0NIMl1bQ0BIXShGKUMoRik9TltDQEBIXShbQ0gyXTIpQzEyW0NAQEhdKFtPSF0pW05IXUMoPU8pW0NASF0oT1tDSDJdW0NIMl0vW0NIXT1bQ0hdXFtDSDJdW09IXSlbQ0BASF0oW09IXSlbQ0gyXVtDQEBIXShbT0hdKUMzPVtDSF1bQ0gyXVtDSDJdW0NIMl1bQ0gyXVtDSDJdMw==

>  <s_glide_docking_method>  (1) 
confgen

>  <s_i_glide_gridfile>  (1) 
gpcr_drd2_6luq_protein_autoprepared_prepared

>  <s_lp_Force_Field>  (1) 
S-OPLS

>  <s_lp_Variant>  (1) 
DiffSBDD_1-1

>  <s_m_source_file>  (1) 
generated_generic_title2_ligand_DiffSBDD_2026-06-23_prepared.sdf

>  <GenAI_Model>  (1) 
DiffSBDD

>  <Protein>  (1) 
generic_title2

$$$$
DiffSBDD_94
     RDKit          3D

  0  0  0  0  0  0  0  0  0  0999 V3000
M  V30 BEGIN CTAB
M  V30 COUNTS 66 70 0 0 1
M  V30 BEGIN ATOM
M  V30 1 C 6.294584 5.153705 -14.492009 0
M  V30 2 C 8.621561 5.180606 -10.045695 0
M  V30 3 O 10.839542 10.211934 -4.956021 0
M  V30 4 C 6.124500 5.032456 -12.967073 0
M  V30 5 C 10.766898 8.999300 -5.676022 0 CFG=1
M  V30 6 N 10.864453 2.234844 -20.355336 0
M  V30 7 C 10.469093 2.698143 -21.570472 0
M  V30 8 C 7.182496 4.041419 -15.122467 0 CFG=2
M  V30 9 C 9.862518 4.093530 -19.349674 0
M  V30 10 C 12.020602 8.770604 -6.478295 0 CFG=1
M  V30 11 Cl 6.569527 1.831290 -13.583039 0
M  V30 12 C 11.775414 8.026027 -5.166641 0
M  V30 13 C 9.557250 4.821704 -18.048574 0 CFG=2
M  V30 14 C 8.887351 6.623289 -11.479278 0
M  V30 15 C 7.746884 5.641861 -11.219474 0 CFG=1
M  V30 16 C 7.770792 3.053068 -14.079490 0 CFG=2
M  V30 17 C 10.484538 7.859621 -8.368325 0 CFG=1
M  V30 18 C 10.847383 5.346879 -17.393686 0
M  V30 19 C 9.745050 3.888916 -21.731160 0
M  V30 20 O 9.375292 3.581715 -12.385083 0
M  V30 21 N 10.564466 2.934147 -19.242835 0
M  V30 22 N 9.068149 6.582288 -10.029138 0 CFG=2 CHG=1
M  V30 23 C 11.931221 8.122230 -7.859757 0
M  V30 24 N 7.425234 4.748589 -12.346905 0
M  V30 25 F 13.031403 9.704647 -6.384658 0
M  V30 26 C 10.441624 6.869640 -9.539147 0
M  V30 27 C 9.429680 4.612519 -20.581132 0
M  V30 28 C 9.417844 8.443540 -6.096177 0
M  V30 29 O 9.096162 6.314630 -7.141795 0
M  V30 30 C 8.265349 3.814805 -12.849554 0
M  V30 31 C 8.711021 3.936409 -17.110008 0
M  V30 32 C 9.608042 7.429779 -7.196666 0
M  V30 33 N 8.244941 4.692247 -15.928366 0 CHG=1
M  V30 34 H 6.731804 6.135332 -14.685248 0
M  V30 35 H 5.321650 5.190212 -14.976833 0
M  V30 36 H 9.439354 4.487018 -10.233354 0
M  V30 37 H 8.057162 4.893212 -9.157307 0
M  V30 38 H 11.709838 10.564721 -5.077810 0
M  V30 39 H 5.430141 4.229456 -12.717270 0
M  V30 40 H 5.666240 5.949322 -12.592499 0
M  V30 41 H 10.738794 2.097712 -22.427735 0
M  V30 42 H 6.575428 3.455148 -15.806514 0
M  V30 43 H 12.366568 8.318982 -4.300072 0
M  V30 44 H 11.546108 6.963058 -5.220691 0
M  V30 45 H 8.953384 5.692857 -18.309713 0
M  V30 46 H 8.601908 7.606796 -11.851222 0
M  V30 47 H 9.731658 6.209592 -12.036256 0
M  V30 48 H 6.856351 6.133365 -10.818121 0
M  V30 49 H 8.575342 2.474159 -14.518576 0
M  V30 50 H 10.072129 8.808422 -8.714599 0
M  V30 51 H 11.406162 5.969482 -18.092845 0
M  V30 52 H 10.638318 5.958793 -16.516640 0
M  V30 53 H 11.501624 4.531486 -17.082357 0
M  V30 54 H 9.443814 4.231348 -22.710168 0
M  V30 55 H 12.495260 7.192869 -7.815034 0
M  V30 56 H 12.447389 8.763422 -8.575491 0
M  V30 57 H 11.063596 7.250501 -10.350486 0
M  V30 58 H 10.907668 5.963170 -9.183628 0
M  V30 59 H 8.875116 5.537175 -20.637343 0
M  V30 60 H 8.975410 7.943586 -5.256904 0
M  V30 61 H 8.732350 9.190203 -6.471296 0
M  V30 62 H 9.276433 3.061993 -16.785766 0
M  V30 63 H 7.846044 3.568047 -17.665529 0
M  V30 64 H 7.858950 5.559742 -16.275342 0
M  V30 65 H 9.035435 4.914396 -15.337522 0
M  V30 66 H 8.342273 7.159935 -9.586498 0
M  V30 END ATOM
M  V30 BEGIN BOND
M  V30 1 1 4 1
M  V30 2 1 5 3 CFG=1
M  V30 3 1 7 6
M  V30 4 1 8 1
M  V30 5 1 10 5
M  V30 6 1 12 5
M  V30 7 1 12 10
M  V30 8 1 13 9
M  V30 9 1 15 2
M  V30 10 1 15 14
M  V30 11 1 16 8
M  V30 12 1 16 11
M  V30 13 1 18 13
M  V30 14 2 19 7
M  V30 15 2 21 6
M  V30 16 1 21 9
M  V30 17 1 22 2
M  V30 18 1 22 14
M  V30 19 1 23 10
M  V30 20 1 23 17
M  V30 21 1 24 4
M  V30 22 1 24 15
M  V30 23 1 10 25 CFG=1
M  V30 24 1 26 17
M  V30 25 1 26 22
M  V30 26 2 27 9
M  V30 27 1 27 19
M  V30 28 1 28 5
M  V30 29 1 30 16
M  V30 30 2 30 20
M  V30 31 1 30 24
M  V30 32 1 31 13
M  V30 33 1 32 17
M  V30 34 1 32 28
M  V30 35 2 32 29
M  V30 36 1 33 8
M  V30 37 1 33 31
M  V30 38 1 34 1
M  V30 39 1 35 1
M  V30 40 1 36 2
M  V30 41 1 37 2
M  V30 42 1 38 3
M  V30 43 1 39 4
M  V30 44 1 40 4
M  V30 45 1 41 7
M  V30 46 1 8 42 CFG=3
M  V30 47 1 43 12
M  V30 48 1 44 12
M  V30 49 1 13 45 CFG=3
M  V30 50 1 46 14
M  V30 51 1 47 14
M  V30 52 1 15 48 CFG=1
M  V30 53 1 16 49 CFG=3
M  V30 54 1 17 50 CFG=3
M  V30 55 1 51 18
M  V30 56 1 52 18
M  V30 57 1 53 18
M  V30 58 1 54 19
M  V30 59 1 55 23
M  V30 60 1 56 23
M  V30 61 1 57 26
M  V30 62 1 58 26
M  V30 63 1 59 27
M  V30 64 1 60 28
M  V30 65 1 61 28
M  V30 66 1 62 31
M  V30 67 1 63 31
M  V30 68 1 64 33
M  V30 69 1 65 33
M  V30 70 1 22 66 CFG=1
M  V30 END BOND
M  V30 END CTAB
M  END
>  <i_epik_Tot_Q>  (1) 
2

>  <i_epik_Tot_abs_Q>  (1) 
2

>  <i_i_glide_confnum>  (1) 
367

>  <i_i_glide_lignum>  (1) 
179

>  <i_i_glide_posenum>  (1) 
177

>  <i_i_glide_rotatable_bonds>  (1) 
8

>  <i_lp_mmshare_version>  (1) 
72125

>  <i_m_source_file_index>  (1) 
95

>  <i_f3d_flags>  (1) 
0

>  <num_sample>  (1) 
100

>  <b_lp_Chiralities_Consistent>  (1) 
1

>  <r_epik_Charging_Adjusted_Penalty>  (1) 
0.95188217531897845

>  <r_epik_Ionization_Penalty>  (1) 
0.49022780398244736

>  <r_epik_Ionization_Penalty_Charging>  (1) 
0.49020808109847258

>  <r_epik_Ionization_Penalty_Neutral>  (1) 
1.9722883974789891e-05

>  <r_epik_State_Penalty>  (1) 
0.46167409422050587

>  <r_glide_ring_energy>  (1) 
1.3165782718524275

>  <r_i_docking_score>  (1) 
-4.8730480894024693

>  <r_i_glide_ecoul>  (1) 
-6.5043714989434704

>  <r_i_glide_eff_state_penalty>  (1) 
0.46167409422050587

>  <r_i_glide_einternal>  (1) 
7.9476497636612926

>  <r_i_glide_emodel>  (1) 
-45.126424820125273

>  <r_i_glide_emodel_strain>  (1) 
0.21631926123254175

>  <r_i_glide_energy>  (1) 
-31.782647319977347

>  <r_i_glide_erotb>  (1) 
0.52401424714319955

>  <r_i_glide_esite>  (1) 
-0.1601304898314013

>  <r_i_glide_evdw>  (1) 
-25.278275821033876

>  <r_i_glide_gscore>  (1) 
-5.3347221836229748

>  <r_i_glide_gscore_strain>  (1) 
0

>  <r_i_glide_hbond>  (1) 
-0.20000000000000001

>  <r_i_glide_ligand_efficiency>  (1) 
-0.14766812392128695

>  <r_i_glide_ligand_efficiency_ln>  (1) 
-1.0837406637904519

>  <r_i_glide_ligand_efficiency_sa>  (1) 
-0.47365057692360585

>  <r_i_glide_lipo>  (1) 
-1.5808674339704329

>  <r_i_glide_metal>  (1) 
-0

>  <r_i_glide_rewards>  (1) 
-1.6781689910711246

>  <r_lp_Energy>  (1) 
63.815528

>  <r_lp_tautomer_probability>  (1) 
0.99999998000000001

>  <s_epik_cmdline>  (1) 
J2VwaWtfcHl0aG9uJywgJy1waHQnLCAnMS4wJywgJy1waCcsICc3LjQnLCAnLXRuJywgJzgnLCAnLW1hJywgJzUwMCcsICctaW1hZScsICc8aW5maWxlLm1hZT4nLCAnLW9tYWUnLCAnPG91dGZpbGUubWFlPic=

>  <s_epik_input>  (1) 
W2NIXTFbY0hdW2NIXW5uYzFbQ0BIXShbQ0gzXSlbQ0gyXVtOSF1bQ0BASF0yW0NIMl1bQ0gyXU4oQyg9TylbQ0BIXTJDbClbQ0hdM1tDSDJdTihbQ0gyXTMpW0NIMl1bQ0BASF0oQyg9TylbQ0gyXTQpW0NIMl1bQ0BdKEYpKFtDSDJdNSlbQ0BAXTQ1W09IXQ==

>  <s_glide_docking_method>  (1) 
confgen

>  <s_i_glide_gridfile>  (1) 
gpcr_drd2_6luq_protein_autoprepared_prepared

>  <s_lp_Force_Field>  (1) 
S-OPLS

>  <s_lp_Variant>  (1) 
DiffSBDD_94-2

>  <s_m_source_file>  (1) 
generated_generic_title2_ligand_DiffSBDD_2026-06-23_prepared.sdf

>  <GenAI_Model>  (1) 
DiffSBDD

>  <Protein>  (1) 
generic_title2

$$$$
DiffSBDD_2
     RDKit          3D

  0  0  0  0  0  0  0  0  0  0999 V3000
M  V30 BEGIN CTAB
M  V30 COUNTS 70 74 0 0 1
M  V30 BEGIN ATOM
M  V30 1 C 8.606477 5.547102 -9.548000 0
M  V30 2 N 7.900171 4.243030 -15.901399 0
M  V30 3 C 10.356601 3.951399 -17.764749 0
M  V30 4 C 5.360922 6.347346 -19.274331 0
M  V30 5 C 7.633102 2.183204 -19.918247 0
M  V30 6 C 11.501842 8.004754 -8.903237 0 CFG=1
M  V30 7 C 6.243021 4.251787 -20.407755 0
M  V30 8 O 6.432123 6.730651 -13.585239 0
M  V30 9 C 10.431006 7.190175 -9.612620 0
M  V30 10 C 7.902566 3.422119 -13.541097 0 CFG=2
M  V30 11 C 7.376098 5.092475 -18.279974 0
M  V30 12 C 6.914625 5.660350 -13.956132 0
M  V30 13 C 9.282739 1.721873 -17.442465 0
M  V30 14 C 12.823888 8.365173 -9.542525 0
M  V30 15 O 11.719535 9.270339 -9.542509 0
M  V30 16 O 7.318794 2.323768 -12.865730 0
M  V30 17 O 8.067542 6.101834 -18.415762 0
M  V30 18 C 9.784932 6.124325 -7.379211 0
M  V30 19 C 10.546491 7.258690 -6.738769 0
M  V30 20 C 6.471627 2.752331 -20.292257 0
M  V30 21 C 4.903671 7.051086 -17.987290 0
M  V30 22 F 11.951615 9.082905 -6.768791 0
M  V30 23 C 9.235763 6.576889 -11.665034 0
M  V30 24 C 7.032697 5.360877 -15.467233 0
M  V30 25 C 9.605951 6.287053 -8.884081 0
M  V30 26 C 9.057065 3.147959 -18.003931 0
M  V30 27 C 6.045048 4.975709 -19.053473 0 CFG=1
M  V30 28 C 8.410886 5.697195 -10.934809 0
M  V30 29 C 10.238130 7.316327 -11.008777 0
M  V30 30 C 7.800854 3.895348 -17.364359 0 CFG=1
M  V30 31 C 7.282233 4.929474 -11.623973 0
M  V30 32 N 7.359432 4.714673 -13.084916 0
M  V30 33 C 11.317159 8.100526 -7.432619 0
M  V30 34 C 8.891351 2.956009 -19.546187 0
M  V30 35 C 7.619437 3.118285 -15.019105 0
M  V30 36 H 7.972851 4.876408 -8.985924 0
M  V30 37 H 11.225810 3.421941 -18.155834 0
M  V30 38 H 10.337033 4.926553 -18.249753 0
M  V30 39 H 10.535982 4.118893 -16.702113 0
M  V30 40 H 6.016898 7.010994 -19.839974 0
M  V30 41 H 4.481941 6.203306 -19.901387 0
M  V30 42 H 7.697894 1.106352 -19.858373 0
M  V30 43 H 5.355512 4.377047 -21.028899 0
M  V30 44 H 7.051946 4.713551 -20.975198 0
M  V30 45 H 8.975528 3.432012 -13.350101 0
M  V30 46 H 9.942601 1.135162 -18.082584 0
M  V30 47 H 9.775431 1.734619 -16.474933 0
M  V30 48 H 8.349983 1.164732 -17.348911 0
M  V30 49 H 13.654430 8.682986 -8.915251 0
M  V30 50 H 13.072637 7.990267 -10.529682 0
M  V30 51 H 8.012799 1.776932 -12.524187 0
M  V30 52 H 8.800414 6.060442 -6.912828 0
M  V30 53 H 10.306802 5.190738 -7.185063 0
M  V30 54 H 10.448726 7.371780 -5.669264 0
M  V30 55 H 5.626578 2.120692 -20.527482 0
M  V30 56 H 4.331324 7.948490 -18.223477 0
M  V30 57 H 4.267462 6.403099 -17.383676 0
M  V30 58 H 5.750859 7.360672 -17.375940 0
M  V30 59 H 9.094119 6.698803 -12.726442 0
M  V30 60 H 6.013111 5.193933 -15.816062 0
M  V30 61 H 7.375188 6.295090 -15.911155 0
M  V30 62 H 5.369220 4.374712 -18.447900 0
M  V30 63 H 10.854664 7.990204 -11.575553 0
M  V30 64 H 6.975473 3.188130 -17.443593 0
M  V30 65 H 6.357936 5.460985 -11.389788 0
M  V30 66 H 7.168839 3.990226 -11.092544 0
M  V30 67 H 9.739659 2.404148 -19.953075 0
M  V30 68 H 8.932428 3.907526 -20.074566 0
M  V30 69 H 8.175280 2.229737 -15.273446 0
M  V30 70 H 6.575403 2.831118 -15.140491 0
M  V30 END ATOM
M  V30 BEGIN BOND
M  V30 1 1 9 6
M  V30 2 2 12 8
M  V30 3 1 14 6
M  V30 4 1 6 15 CFG=3
M  V30 5 1 15 14
M  V30 6 1 16 10
M  V30 7 2 17 11
M  V30 8 1 19 18
M  V30 9 2 20 5
M  V30 10 1 20 7
M  V30 11 1 21 4
M  V30 12 1 24 2
M  V30 13 1 24 12
M  V30 14 1 25 1
M  V30 15 2 25 9
M  V30 16 1 25 18
M  V30 17 1 26 3
M  V30 18 1 26 13
M  V30 19 1 27 4
M  V30 20 1 27 7
M  V30 21 1 27 11
M  V30 22 2 28 1
M  V30 23 1 28 23
M  V30 24 1 29 9
M  V30 25 2 29 23
M  V30 26 1 30 2
M  V30 27 1 30 11
M  V30 28 1 30 26
M  V30 29 1 31 28
M  V30 30 1 32 10
M  V30 31 1 32 12
M  V30 32 1 32 31
M  V30 33 1 33 6
M  V30 34 2 33 19
M  V30 35 1 33 22
M  V30 36 1 34 5
M  V30 37 1 34 26
M  V30 38 1 35 2
M  V30 39 1 35 10
M  V30 40 1 36 1
M  V30 41 1 37 3
M  V30 42 1 38 3
M  V30 43 1 39 3
M  V30 44 1 40 4
M  V30 45 1 41 4
M  V30 46 1 42 5
M  V30 47 1 43 7
M  V30 48 1 44 7
M  V30 49 1 10 45 CFG=3
M  V30 50 1 46 13
M  V30 51 1 47 13
M  V30 52 1 48 13
M  V30 53 1 49 14
M  V30 54 1 50 14
M  V30 55 1 51 16
M  V30 56 1 52 18
M  V30 57 1 53 18
M  V30 58 1 54 19
M  V30 59 1 55 20
M  V30 60 1 56 21
M  V30 61 1 57 21
M  V30 62 1 58 21
M  V30 63 1 59 23
M  V30 64 1 60 24
M  V30 65 1 61 24
M  V30 66 1 27 62 CFG=1
M  V30 67 1 63 29
M  V30 68 1 30 64 CFG=1
M  V30 69 1 65 31
M  V30 70 1 66 31
M  V30 71 1 67 34
M  V30 72 1 68 34
M  V30 73 1 69 35
M  V30 74 1 70 35
M  V30 END BOND
M  V30 END CTAB
M  END
>  <i_epik_Tot_Q>  (1) 
0

>  <i_epik_Tot_abs_Q>  (1) 
0

>  <i_i_glide_confnum>  (1) 
14

>  <i_i_glide_lignum>  (1) 
4

>  <i_i_glide_posenum>  (1) 
391

>  <i_i_glide_rotatable_bonds>  (1) 
5

>  <i_lp_mmshare_version>  (1) 
72125

>  <i_m_source_file_index>  (1) 
3

>  <i_f3d_flags>  (1) 
0

>  <num_sample>  (1) 
100

>  <b_lp_Chiralities_Consistent>  (1) 
1

>  <r_epik_Charging_Adjusted_Penalty>  (1) 
0.083814788405558657

>  <r_epik_Ionization_Penalty>  (1) 
0.083950354633568577

>  <r_epik_Ionization_Penalty_Charging>  (1) 
0

>  <r_epik_Ionization_Penalty_Neutral>  (1) 
0.083950354633568577

>  <r_epik_State_Penalty>  (1) 
0.083814788405558657

>  <r_glide_ring_energy>  (1) 
0.49974599929525609

>  <r_i_docking_score>  (1) 
-4.8660128490030212

>  <r_i_glide_ecoul>  (1) 
-0.11349230876923433

>  <r_i_glide_eff_state_penalty>  (1) 
0.083814788405558657

>  <r_i_glide_einternal>  (1) 
6.7708645544177521

>  <r_i_glide_emodel>  (1) 
-45.64555838504085

>  <r_i_glide_emodel_strain>  (1) 
0.4590479113778656

>  <r_i_glide_energy>  (1) 
-39.360484442086062

>  <r_i_glide_erotb>  (1) 
0.26141387589162818

>  <r_i_glide_esite>  (1) 
0

>  <r_i_glide_evdw>  (1) 
-39.24699213331683

>  <r_i_glide_gscore>  (1) 
-4.9498276374085801

>  <r_i_glide_gscore_strain>  (1) 
0

>  <r_i_glide_hbond>  (1) 
0

>  <r_i_glide_ligand_efficiency>  (1) 
-0.13902893854294346

>  <r_i_glide_ligand_efficiency_ln>  (1) 
-1.0681978156927121

>  <r_i_glide_ligand_efficiency_sa>  (1) 
-0.45477287700910235

>  <r_i_glide_lipo>  (1) 
-1.7338269435398022

>  <r_i_glide_metal>  (1) 
-0

>  <r_i_glide_rewards>  (1) 
-1.4980411167791798

>  <r_lp_Energy>  (1) 
64.581304000000003

>  <r_lp_tautomer_probability>  (1) 
0.99999998000000001

>  <s_epik_Chemistry_Notes>  (1) 
This compound contains an acetal/aminal-like group ( X-CH(R)-Y where X, Y are N, S, or O) that may be acid/base labile, releasing an aldehyde.

>  <s_epik_cmdline>  (1) 
J2VwaWtfcHl0aG9uJywgJy1waHQnLCAnMS4wJywgJy1waCcsICc3LjQnLCAnLXRuJywgJzgnLCAnLW1hJywgJzUwMCcsICctaW1hZScsICc8aW5maWxlLm1hZT4nLCAnLW9tYWUnLCAnPG91dGZpbGUubWFlPic=

>  <s_epik_input>  (1) 
TzFbQ0gyXVtDQF0xMmMzYyhbQ0gyXVtDSF09QzJGKVtjSF1jKFtjSF1bY0hdMylbQ0gyXU4oW0NAQEhdKFtPSF0pW0NIMl00KUMoPU8pW0NIMl1ONFtDQEhdKEM1KFtDSDNdKVtDSDNdKUMoPU8pW0NAQEhdKFtDSDJdW0NIM10pW0NIMl0vW0NIXT1bQ0hdXFtDSDJdNQ==

>  <s_glide_docking_method>  (1) 
confgen

>  <s_i_glide_gridfile>  (1) 
gpcr_drd2_6luq_protein_autoprepared_prepared

>  <s_lp_Force_Field>  (1) 
S-OPLS

>  <s_lp_Variant>  (1) 
DiffSBDD_2-1

>  <s_m_source_file>  (1) 
generated_generic_title2_ligand_DiffSBDD_2026-06-23_prepared.sdf

>  <GenAI_Model>  (1) 
DiffSBDD

>  <Protein>  (1) 
generic_title2

$$$$
DiffSBDD_9
     RDKit          3D

  0  0  0  0  0  0  0  0  0  0999 V3000
M  V30 BEGIN CTAB
M  V30 COUNTS 65 70 0 0 1
M  V30 BEGIN ATOM
M  V30 1 C 9.279660 5.937614 -20.560328 0
M  V30 2 O 6.370366 6.811870 -22.634836 0
M  V30 3 C 8.726248 6.009441 -19.269746 0
M  V30 4 C 10.083244 7.366941 -7.199528 0 CFG=2
M  V30 5 C 11.375407 6.839848 -5.053931 0
M  V30 6 C 6.922343 5.243651 -13.017948 0
M  V30 7 C 5.472743 5.731084 -17.560021 0 CFG=2
M  V30 8 C 4.435470 6.827472 -17.528249 0
M  V30 9 C 11.778224 9.150557 -4.367925 0
M  V30 10 O 9.114273 7.075848 -11.800197 0
M  V30 11 C 8.485105 6.209290 -21.685905 0
M  V30 12 C 9.736555 8.346518 -8.325391 0
M  V30 13 C 6.424012 4.458621 -14.297635 0
M  V30 14 O 6.937837 4.743530 -11.894037 0
M  V30 15 C 11.198493 7.808094 -6.232134 0 CFG=2
M  V30 16 N 10.962342 9.113385 -5.595914 0 CHG=1
M  V30 17 N 6.651865 5.612790 -15.246575 0
M  V30 18 C 7.886048 7.538356 -12.342388 0
M  V30 19 C 11.937734 7.692904 -3.910952 0
M  V30 20 C 7.158558 6.718148 -14.625292 0
M  V30 21 C 6.560957 6.636075 -20.234602 0
M  V30 22 C 4.595249 7.731032 -18.779936 0
M  V30 23 O 9.554137 8.049823 -10.746491 0
M  V30 24 C 7.332742 6.564383 -13.359911 0
M  V30 25 C 10.514945 6.390228 -9.272658 0
M  V30 26 C 5.064287 7.015688 -20.077791 0
M  V30 27 C 6.666460 5.361168 -16.685786 0 CFG=2
M  V30 28 C 6.799736 6.434345 -17.716949 0 CFG=1
M  V30 29 C 9.455566 7.408962 -9.483710 0 CFG=1
M  V30 30 C 7.370269 6.355763 -19.089984 0
M  V30 31 O 10.575401 6.209285 -7.863984 0
M  V30 32 C 7.131283 6.555810 -21.529992 0
M  V30 33 H 10.319215 5.672041 -20.686825 0
M  V30 34 H 5.467662 7.000759 -22.436001 0
M  V30 35 H 9.344986 5.798808 -18.409125 0
M  V30 36 H 9.171431 7.097937 -6.662769 0
M  V30 37 H 10.411152 6.428133 -4.749977 0
M  V30 38 H 12.013775 5.991414 -5.305772 0
M  V30 39 H 5.241208 4.955309 -18.288916 0
M  V30 40 H 4.532394 7.413883 -16.613527 0
M  V30 41 H 3.439706 6.388291 -17.511959 0
M  V30 42 H 11.324250 9.784172 -3.605237 0
M  V30 43 H 12.756370 9.570535 -4.609379 0
M  V30 44 H 8.915479 6.151082 -22.674833 0
M  V30 45 H 10.593307 8.976021 -8.570057 0
M  V30 46 H 8.890835 8.990638 -8.085143 0
M  V30 47 H 5.375425 4.182503 -14.215016 0
M  V30 48 H 7.050348 3.594757 -14.521157 0
M  V30 49 H 12.136162 7.889932 -6.785066 0
M  V30 50 H 11.183346 9.878504 -6.217505 0
M  V30 51 H 8.055300 8.506234 -12.814848 0
M  V30 52 H 7.126882 7.690903 -11.585023 0
M  V30 53 H 11.399406 7.493003 -2.984018 0
M  V30 54 H 12.984211 7.463833 -3.714059 0
M  V30 55 H 7.375412 7.585961 -15.219932 0
M  V30 56 H 5.282484 8.551427 -18.576646 0
M  V30 57 H 3.630736 8.204245 -18.967550 0
M  V30 58 H 10.175406 5.476768 -9.773554 0
M  V30 59 H 11.460684 6.790228 -9.650641 0
M  V30 60 H 4.805456 7.692065 -20.891516 0
M  V30 61 H 4.468841 6.117601 -20.244211 0
M  V30 62 H 7.172837 4.420781 -16.895938 0
M  V30 63 H 6.894704 7.448525 -17.345521 0
M  V30 64 H 8.575410 6.790247 -9.367365 0
M  V30 65 H 9.987969 9.156723 -5.334715 0
M  V30 END ATOM
M  V30 BEGIN BOND
M  V30 1 1 3 1
M  V30 2 1 8 7
M  V30 3 2 11 1
M  V30 4 1 12 4
M  V30 5 1 13 6
M  V30 6 2 14 6
M  V30 7 1 15 4
M  V30 8 1 15 5
M  V30 9 1 16 9
M  V30 10 1 16 15
M  V30 11 1 17 13
M  V30 12 1 18 10
M  V30 13 1 19 5
M  V30 14 1 19 9
M  V30 15 1 20 17
M  V30 16 1 22 8
M  V30 17 1 23 10
M  V30 18 1 24 6
M  V30 19 1 24 18
M  V30 20 2 24 20
M  V30 21 1 26 21
M  V30 22 1 26 22
M  V30 23 1 27 7
M  V30 24 1 27 17
M  V30 25 1 28 7
M  V30 26 1 28 27
M  V30 27 1 29 12
M  V30 28 1 29 23
M  V30 29 1 29 25
M  V30 30 2 30 3
M  V30 31 1 30 21
M  V30 32 1 30 28
M  V30 33 1 31 4
M  V30 34 1 31 25
M  V30 35 1 32 2
M  V30 36 1 32 11
M  V30 37 2 32 21
M  V30 38 1 33 1
M  V30 39 1 34 2
M  V30 40 1 35 3
M  V30 41 1 4 36 CFG=1
M  V30 42 1 37 5
M  V30 43 1 38 5
M  V30 44 1 7 39 CFG=3
M  V30 45 1 40 8
M  V30 46 1 41 8
M  V30 47 1 42 9
M  V30 48 1 43 9
M  V30 49 1 44 11
M  V30 50 1 45 12
M  V30 51 1 46 12
M  V30 52 1 47 13
M  V30 53 1 48 13
M  V30 54 1 15 49 CFG=3
M  V30 55 1 50 16
M  V30 56 1 51 18
M  V30 57 1 52 18
M  V30 58 1 53 19
M  V30 59 1 54 19
M  V30 60 1 55 20
M  V30 61 1 56 22
M  V30 62 1 57 22
M  V30 63 1 58 25
M  V30 64 1 59 25
M  V30 65 1 60 26
M  V30 66 1 61 26
M  V30 67 1 27 62 CFG=1
M  V30 68 1 28 63 CFG=1
M  V30 69 1 29 64 CFG=1
M  V30 70 1 65 16
M  V30 END BOND
M  V30 END CTAB
M  END
>  <i_epik_Tot_Q>  (1) 
1

>  <i_epik_Tot_abs_Q>  (1) 
1

>  <i_i_glide_confnum>  (1) 
40

>  <i_i_glide_lignum>  (1) 
16

>  <i_i_glide_posenum>  (1) 
269

>  <i_i_glide_rotatable_bonds>  (1) 
7

>  <i_lp_mmshare_version>  (1) 
72125

>  <i_m_source_file_index>  (1) 
10

>  <i_f3d_flags>  (1) 
0

>  <num_sample>  (1) 
100

>  <b_lp_Chiralities_Consistent>  (1) 
1

>  <r_epik_Charging_Adjusted_Penalty>  (1) 
0.13693623870853466

>  <r_epik_Ionization_Penalty>  (1) 
0.069127027575875924

>  <r_epik_Ionization_Penalty_Charging>  (1) 
0.068788428358952047

>  <r_epik_Ionization_Penalty_Neutral>  (1) 
0.00033859921692387109

>  <r_epik_State_Penalty>  (1) 
0.06814781034958263

>  <r_glide_ring_energy>  (1) 
0.028054261374209404

>  <r_i_docking_score>  (1) 
-4.8581837576291313

>  <r_i_glide_ecoul>  (1) 
0.69016063165897146

>  <r_i_glide_eff_state_penalty>  (1) 
0.06814781034958263

>  <r_i_glide_einternal>  (1) 
1.4264789679835759

>  <r_i_glide_emodel>  (1) 
-38.284011155930372

>  <r_i_glide_emodel_strain>  (1) 
1.4268083740982433

>  <r_i_glide_energy>  (1) 
-32.564123905615283

>  <r_i_glide_erotb>  (1) 
0.61474503349198251

>  <r_i_glide_esite>  (1) 
-0.14302121245380303

>  <r_i_glide_evdw>  (1) 
-33.254284537274252

>  <r_i_glide_gscore>  (1) 
-4.9263315679787141

>  <r_i_glide_gscore_strain>  (1) 
0

>  <r_i_glide_hbond>  (1) 
0

>  <r_i_glide_ligand_efficiency>  (1) 
-0.15181824242591035

>  <r_i_glide_ligand_efficiency_ln>  (1) 
-1.0878797724207929

>  <r_i_glide_ligand_efficiency_sa>  (1) 
-0.48199287546970654

>  <r_i_glide_lipo>  (1) 
-2.6913073935258116

>  <r_i_glide_metal>  (1) 
-0

>  <r_i_glide_rewards>  (1) 
-1.1475578633762147

>  <r_lp_Energy>  (1) 
34.162976

>  <r_lp_tautomer_probability>  (1) 
0.98846045845453334

>  <s_epik_Chemistry_Notes>  (1) 
This compound has an imine and may undergo hydrolysis.

>  <s_epik_cmdline>  (1) 
J2VwaWtfcHl0aG9uJywgJy1waHQnLCAnMS4wJywgJy1waCcsICc3LjQnLCAnLXRuJywgJzgnLCAnLW1hJywgJzUwMCcsICctaW1hZScsICc8aW5maWxlLm1hZT4nLCAnLW9tYWUnLCAnPG91dGZpbGUubWFlPic=

>  <s_epik_input>  (1) 
W2NIXTFbY0hdW2NIXWMoW09IXSljKFtDSDJdW0NIMl1bQ0gyXTIpYzFbQ0BASF0oW0NASF0yMylbQ0hdM24oW2NIXWM0W09IXSlbY0hdYzRbQ0gyXU9PW0NAQEhdKFtDSDJdTzUpW0NIMl1bQ0BASF01W0NAQEhdNltDSDJdW0NIMl1bQ0gyXVtOSF02

>  <s_glide_docking_method>  (1) 
confgen

>  <s_i_glide_gridfile>  (1) 
gpcr_drd2_6luq_protein_autoprepared_prepared

>  <s_lp_Force_Field>  (1) 
S-OPLS

>  <s_lp_Variant>  (1) 
DiffSBDD_9-1

>  <s_m_source_file>  (1) 
generated_generic_title2_ligand_DiffSBDD_2026-06-23_prepared.sdf

>  <GenAI_Model>  (1) 
DiffSBDD

>  <Protein>  (1) 
generic_title2

$$$$
DiffSBDD_26
     RDKit          3D

  0  0  0  0  0  0  0  0  0  0999 V3000
M  V30 BEGIN CTAB
M  V30 COUNTS 56 58 0 0 1
M  V30 BEGIN ATOM
M  V30 1 C 6.436658 5.087986 -14.595595 0
M  V30 2 O 12.174832 7.601279 -10.773459 0
M  V30 3 C 9.285233 4.984260 -17.297705 0 CFG=1
M  V30 4 C 9.384012 5.209620 -9.263547 0
M  V30 5 C 10.175932 4.854852 -19.719243 0
M  V30 6 C 8.736533 5.247708 -13.885631 0
M  V30 7 C 8.330409 5.294690 -11.354442 0 CFG=2
M  V30 8 C 7.873017 4.988766 -9.055632 0
M  V30 9 C 5.911271 4.269908 -12.236722 0
M  V30 10 N 7.247228 5.283054 -10.361681 0 CFG=2 CHG=1
M  V30 11 N 9.375334 7.411504 -10.458514 0
M  V30 12 C 10.661276 5.190386 -16.637177 0
M  V30 13 C 10.234461 8.110096 -9.494380 0
M  V30 14 C 6.015892 4.537583 -10.722421 0
M  V30 15 C 9.300123 4.189883 -18.641066 0
M  V30 16 C 6.437703 5.439212 -13.095551 0 CFG=1
M  V30 17 C 7.849133 5.360981 -15.131703 0 CFG=1
M  V30 18 C 9.507707 5.955639 -10.613507 0 CFG=1
M  V30 19 O 11.566215 4.373712 -16.787889 0
M  V30 20 C 8.231777 4.428302 -16.306122 0
M  V30 21 O 12.431930 8.009904 -8.600717 0 CHG=-1
M  V30 22 C 7.894008 5.824765 -12.738803 0 CFG=2
M  V30 23 C 9.623647 2.685612 -18.514462 0
M  V30 24 C 11.742771 7.888268 -9.636451 0
M  V30 25 H 5.688470 5.662149 -15.143109 0
M  V30 26 H 6.182624 4.036358 -14.738753 0
M  V30 27 H 8.955581 5.988696 -17.561553 0
M  V30 28 H 9.854278 4.231197 -9.359716 0
M  V30 29 H 9.866210 5.692025 -8.415070 0
M  V30 30 H 11.236342 4.812824 -19.469157 0
M  V30 31 H 9.906207 5.901763 -19.853660 0
M  V30 32 H 10.050285 4.361731 -20.683653 0
M  V30 33 H 8.958308 4.195491 -13.699464 0
M  V30 34 H 9.692114 5.759107 -13.979609 0
M  V30 35 H 8.599954 4.244132 -11.489409 0
M  V30 36 H 7.647272 3.990254 -8.691509 0
M  V30 37 H 7.481620 5.666949 -8.307806 0
M  V30 38 H 4.876346 4.049510 -12.499085 0
M  V30 39 H 6.481517 3.369760 -12.472502 0
M  V30 40 H 8.419570 7.624879 -10.149433 0
M  V30 41 H 10.765690 6.097150 -16.042159 0
M  V30 42 H 10.042575 9.177656 -9.584631 0
M  V30 43 H 9.934201 7.847017 -8.480086 0
M  V30 44 H 5.961441 3.590193 -10.185520 0
M  V30 45 H 5.165783 5.132778 -10.385237 0
M  V30 46 H 8.282322 4.241474 -19.029968 0
M  V30 47 H 5.797163 6.306138 -12.925491 0
M  V30 48 H 7.864592 6.390774 -15.478550 0
M  V30 49 H 10.409531 5.771415 -11.185147 0
M  V30 50 H 7.323705 4.233206 -16.878851 0
M  V30 51 H 8.540223 3.456483 -15.919611 0
M  V30 52 H 7.966464 6.913488 -12.761771 0
M  V30 53 H 10.647771 2.503106 -18.191369 0
M  V30 54 H 9.500043 2.183473 -19.474103 0
M  V30 55 H 8.958049 2.186046 -17.811240 0
M  V30 56 H 6.975352 6.260355 -10.266625 0
M  V30 END ATOM
M  V30 BEGIN BOND
M  V30 1 1 8 4
M  V30 2 1 10 7
M  V30 3 1 10 8
M  V30 4 1 12 3
M  V30 5 1 13 11
M  V30 6 1 14 9
M  V30 7 1 14 10
M  V30 8 1 15 3
M  V30 9 1 15 5
M  V30 10 1 16 1
M  V30 11 1 16 9
M  V30 12 1 17 1
M  V30 13 1 17 6
M  V30 14 1 18 4
M  V30 15 1 18 7
M  V30 16 1 18 11
M  V30 17 2 19 12
M  V30 18 1 20 3
M  V30 19 1 20 17
M  V30 20 1 22 6
M  V30 21 1 22 7
M  V30 22 1 22 16
M  V30 23 1 23 15
M  V30 24 2 24 2
M  V30 25 1 24 13
M  V30 26 1 24 21
M  V30 27 1 25 1
M  V30 28 1 26 1
M  V30 29 1 3 27 CFG=3
M  V30 30 1 28 4
M  V30 31 1 29 4
M  V30 32 1 30 5
M  V30 33 1 31 5
M  V30 34 1 32 5
M  V30 35 1 33 6
M  V30 36 1 34 6
M  V30 37 1 7 35 CFG=3
M  V30 38 1 36 8
M  V30 39 1 37 8
M  V30 40 1 38 9
M  V30 41 1 39 9
M  V30 42 1 40 11
M  V30 43 1 41 12
M  V30 44 1 42 13
M  V30 45 1 43 13
M  V30 46 1 44 14
M  V30 47 1 45 14
M  V30 48 1 46 15
M  V30 49 1 16 47 CFG=3
M  V30 50 1 17 48 CFG=3
M  V30 51 1 18 49 CFG=3
M  V30 52 1 50 20
M  V30 53 1 51 20
M  V30 54 1 22 52 CFG=1
M  V30 55 1 53 23
M  V30 56 1 54 23
M  V30 57 1 55 23
M  V30 58 1 10 56 CFG=1
M  V30 END BOND
M  V30 END CTAB
M  END
>  <i_epik_Tot_Q>  (1) 
0

>  <i_epik_Tot_abs_Q>  (1) 
2

>  <i_i_glide_confnum>  (1) 
69

>  <i_i_glide_lignum>  (1) 
46

>  <i_i_glide_posenum>  (1) 
261

>  <i_i_glide_rotatable_bonds>  (1) 
7

>  <i_lp_mmshare_version>  (1) 
72125

>  <i_m_source_file_index>  (1) 
27

>  <i_f3d_flags>  (1) 
0

>  <num_sample>  (1) 
100

>  <b_lp_Chiralities_Consistent>  (1) 
1

>  <r_epik_Charging_Adjusted_Penalty>  (1) 
0.19178745009715187

>  <r_epik_Ionization_Penalty>  (1) 
0.029917907437945299

>  <r_epik_Ionization_Penalty_Charging>  (1) 
0.0050195782491265998

>  <r_epik_Ionization_Penalty_Neutral>  (1) 
0.024898329188818697

>  <r_epik_State_Penalty>  (1) 
0.18676787184802526

>  <r_glide_ring_energy>  (1) 
0

>  <r_i_docking_score>  (1) 
-4.8575542900611905

>  <r_i_glide_ecoul>  (1) 
-9.6668728507635642

>  <r_i_glide_eff_state_penalty>  (1) 
0.18676787184802526

>  <r_i_glide_einternal>  (1) 
6.4798726418720936

>  <r_i_glide_emodel>  (1) 
-32.605440808898521

>  <r_i_glide_emodel_strain>  (1) 
2.8800327367919039

>  <r_i_glide_energy>  (1) 
-29.357068429744213

>  <r_i_glide_erotb>  (1) 
0.66727664270853937

>  <r_i_glide_esite>  (1) 
-0.10000000000000001

>  <r_i_glide_evdw>  (1) 
-19.690195578980649

>  <r_i_glide_gscore>  (1) 
-5.044322161909216

>  <r_i_glide_gscore_strain>  (1) 
0

>  <r_i_glide_hbond>  (1) 
-0.35999999999999999

>  <r_i_glide_ligand_efficiency>  (1) 
-0.20239809541921627

>  <r_i_glide_ligand_efficiency_ln>  (1) 
-1.1626356402537439

>  <r_i_glide_ligand_efficiency_sa>  (1) 
-0.58381713229880505

>  <r_i_glide_lipo>  (1) 
-0.73013744784107393

>  <r_i_glide_metal>  (1) 
-0

>  <r_i_glide_rewards>  (1) 
-2.0869206502131137

>  <r_lp_Energy>  (1) 
40.618023999999998

>  <r_lp_tautomer_probability>  (1) 
0.99990000499974985

>  <s_epik_cmdline>  (1) 
J2VwaWtfcHl0aG9uJywgJy1waHQnLCAnMS4wJywgJy1waCcsICc3LjQnLCAnLXRuJywgJzgnLCAnLW1hJywgJzUwMCcsICctaW1hZScsICc8aW5maWxlLm1hZT4nLCAnLW9tYWUnLCAnPG91dGZpbGUubWFlPic=

>  <s_epik_input>  (1) 
W0NIM11bQ0hdKFtDSDNdKVtDQEhdKFtDSF09TylbQ0gyXVtDQEBIXShbQ0gyXTEpW0NIMl1bQ0BIXTJbQ0BASF0xW0NIMl1bQ0gyXU4oW0NAQEhdMjMpW0NIMl1bQ0gyXVtDQEBIXTNbTkhdW0NIMl1DKD1PKVtPSF0=

>  <s_glide_docking_method>  (1) 
confgen

>  <s_i_glide_gridfile>  (1) 
gpcr_drd2_6luq_protein_autoprepared_prepared

>  <s_lp_Force_Field>  (1) 
S-OPLS

>  <s_lp_Variant>  (1) 
DiffSBDD_26-2

>  <s_m_source_file>  (1) 
generated_generic_title2_ligand_DiffSBDD_2026-06-23_prepared.sdf

>  <GenAI_Model>  (1) 
DiffSBDD

>  <Protein>  (1) 
generic_title2

$$$$
DiffSBDD_81
     RDKit          3D

  0  0  0  0  0  0  0  0  0  0999 V3000
M  V30 BEGIN CTAB
M  V30 COUNTS 68 71 0 0 1
M  V30 BEGIN ATOM
M  V30 1 C 8.370751 5.068841 -12.275900 0 CFG=1
M  V30 2 C 10.074411 6.725385 -5.744604 0
M  V30 3 O 11.779574 9.988538 -2.779353 0
M  V30 4 C 12.114532 8.738614 -3.292850 0
M  V30 5 C 7.059420 3.265530 -13.607450 0
M  V30 6 C 6.834361 1.452163 -15.089257 0
M  V30 7 C 6.610470 1.975117 -13.770542 0
M  V30 8 C 9.625630 4.145018 -12.246510 0
M  V30 9 O 11.729549 8.880845 -7.090827 0
M  V30 10 O 5.899748 5.014837 -12.362352 0
M  V30 11 C 9.528268 6.943616 -10.857724 0 CFG=2
M  V30 12 C 6.375512 -0.112115 -16.856793 0
M  V30 13 C 8.425596 5.188757 -15.508081 0 CFG=1
M  V30 14 C 8.393539 5.878401 -10.960864 0
M  V30 15 C 7.886533 3.685265 -15.641818 0
M  V30 16 O 11.614644 10.688599 -5.665561 0
M  V30 17 N 8.379089 6.050550 -13.370612 0
M  V30 18 C 11.728140 6.079867 -4.065900 0
M  V30 19 C 7.623888 3.798239 -14.741324 0
M  V30 20 C 11.460335 8.515802 -4.688145 0 CFG=1
M  V30 21 O 9.255868 5.574598 -14.434743 0
M  V30 22 C 7.059463 4.202981 -12.400462 0 CFG=2
M  V30 23 C 10.294263 7.042181 -9.525759 0
M  V30 24 C 7.504462 2.341042 -16.055694 0
M  V30 25 C 10.293559 6.135254 -7.106754 0 CFG=2
M  V30 26 C 9.524707 6.721138 -8.271662 0 CFG=2
M  V30 27 O 8.968499 8.197230 -11.181618 0
M  V30 28 O 5.173662 -0.154675 -14.897818 0
M  V30 29 C 9.228093 5.324701 -7.794897 0
M  V30 30 C 12.081675 9.377656 -5.817025 0
M  V30 31 N 6.419088 0.160328 -15.430645 0
M  V30 32 N 11.358540 7.079897 -5.084093 0 CFG=2 CHG=1
M  V30 33 H 9.458760 7.604939 -5.902376 0
M  V30 34 H 9.470514 6.045331 -5.146205 0
M  V30 35 H 12.476282 10.237219 -2.173500 0
M  V30 36 H 11.724704 8.072614 -2.520379 0
M  V30 37 H 13.199457 8.590956 -3.326809 0
M  V30 38 H 6.137468 1.404411 -12.977350 0
M  V30 39 H 9.527708 3.396473 -11.457590 0
M  V30 40 H 9.784538 3.608721 -13.177677 0
M  V30 41 H 10.547798 4.690220 -12.047323 0
M  V30 42 H 10.836774 9.138663 -7.291294 0
M  V30 43 H 5.991277 5.636127 -11.652790 0
M  V30 44 H 10.295732 6.783138 -11.615333 0
M  V30 45 H 7.373814 -0.103041 -17.294189 0
M  V30 46 H 5.963181 -1.108052 -17.023047 0
M  V30 47 H 5.739697 0.607682 -17.372271 0
M  V30 48 H 7.671928 5.936275 -15.752680 0
M  V30 49 H 7.436720 6.369796 -10.797390 0
M  V30 50 H 8.439734 5.149263 -10.159290 0
M  V30 51 H 11.326060 10.814780 -4.769264 0
M  V30 52 H 8.773942 6.921192 -13.036497 0
M  V30 53 H 10.900616 5.870096 -3.394250 0
M  V30 54 H 12.039514 5.190230 -4.583769 0
M  V30 55 H 12.574982 6.350823 -3.445692 0
M  V30 56 H 10.461369 8.886104 -4.628214 0
M  V30 57 H 6.988904 3.584076 -11.508087 0
M  V30 58 H 11.147832 6.388649 -9.552938 0
M  V30 59 H 10.732109 8.032725 -9.419565 0
M  V30 60 H 7.710828 2.012559 -17.067189 0
M  V30 61 H 11.302015 5.773451 -7.283937 0
M  V30 62 H 8.761934 7.457381 -8.030674 0
M  V30 63 H 8.219640 8.341348 -10.597850 0
M  V30 64 H 4.560895 0.448387 -15.289353 0
M  V30 65 H 8.266932 5.196128 -7.303405 0
M  V30 66 H 9.570610 4.479868 -8.390480 0
M  V30 67 H 13.167379 9.403396 -5.733746 0
M  V30 68 H 12.061281 7.000466 -5.803383 0
M  V30 END ATOM
M  V30 BEGIN BOND
M  V30 1 1 4 3
M  V30 2 2 7 5
M  V30 3 1 7 6
M  V30 4 1 1 8 CFG=3
M  V30 5 1 14 1
M  V30 6 1 14 11
M  V30 7 1 15 13
M  V30 8 1 17 1
M  V30 9 1 19 5
M  V30 10 1 19 13
M  V30 11 2 19 15
M  V30 12 1 20 4
M  V30 13 1 21 13
M  V30 14 1 21 17
M  V30 15 1 22 1
M  V30 16 1 22 5
M  V30 17 1 22 10
M  V30 18 1 23 11
M  V30 19 2 24 6
M  V30 20 1 24 15
M  V30 21 1 25 2
M  V30 22 1 26 23
M  V30 23 1 26 25
M  V30 24 1 27 11
M  V30 25 1 29 25
M  V30 26 1 29 26
M  V30 27 1 30 9
M  V30 28 1 30 16
M  V30 29 1 30 20
M  V30 30 1 31 6
M  V30 31 1 31 12
M  V30 32 1 31 28
M  V30 33 1 32 2
M  V30 34 1 32 18
M  V30 35 1 32 20
M  V30 36 1 33 2
M  V30 37 1 34 2
M  V30 38 1 35 3
M  V30 39 1 36 4
M  V30 40 1 37 4
M  V30 41 1 38 7
M  V30 42 1 39 8
M  V30 43 1 40 8
M  V30 44 1 41 8
M  V30 45 1 42 9
M  V30 46 1 43 10
M  V30 47 1 11 44 CFG=3
M  V30 48 1 45 12
M  V30 49 1 46 12
M  V30 50 1 47 12
M  V30 51 1 13 48 CFG=3
M  V30 52 1 49 14
M  V30 53 1 50 14
M  V30 54 1 51 16
M  V30 55 1 52 17
M  V30 56 1 53 18
M  V30 57 1 54 18
M  V30 58 1 55 18
M  V30 59 1 20 56 CFG=1
M  V30 60 1 22 57 CFG=1
M  V30 61 1 58 23
M  V30 62 1 59 23
M  V30 63 1 60 24
M  V30 64 1 25 61 CFG=3
M  V30 65 1 26 62 CFG=1
M  V30 66 1 63 27
M  V30 67 1 64 28
M  V30 68 1 65 29
M  V30 69 1 66 29
M  V30 70 1 67 30
M  V30 71 1 32 68 CFG=3
M  V30 END BOND
M  V30 END CTAB
M  END
>  <i_epik_Tot_Q>  (1) 
1

>  <i_epik_Tot_abs_Q>  (1) 
1

>  <i_i_glide_confnum>  (1) 
2577

>  <i_i_glide_lignum>  (1) 
143

>  <i_i_glide_posenum>  (1) 
59

>  <i_i_glide_rotatable_bonds>  (1) 
16

>  <i_lp_mmshare_version>  (1) 
72125

>  <i_m_source_file_index>  (1) 
82

>  <i_f3d_flags>  (1) 
0

>  <num_sample>  (1) 
100

>  <b_lp_Chiralities_Consistent>  (1) 
1

>  <r_epik_Charging_Adjusted_Penalty>  (1) 
0.61642058797261945

>  <r_epik_Ionization_Penalty>  (1) 
0.30960007796245242

>  <r_epik_Ionization_Penalty_Charging>  (1) 
0.30821029398630978

>  <r_epik_Ionization_Penalty_Neutral>  (1) 
0.0013897839761426282

>  <r_epik_State_Penalty>  (1) 
0.30821029398630967

>  <r_glide_ring_energy>  (1) 
0

>  <r_i_docking_score>  (1) 
-4.8563169615033024

>  <r_i_glide_ecoul>  (1) 
-6.9060175479679362

>  <r_i_glide_eff_state_penalty>  (1) 
0.30821029398630967

>  <r_i_glide_einternal>  (1) 
20.976506891383035

>  <r_i_glide_emodel>  (1) 
-27.367147020401895

>  <r_i_glide_emodel_strain>  (1) 
5.5875209999737763

>  <r_i_glide_energy>  (1) 
-33.142126417402025

>  <r_i_glide_erotb>  (1) 
0.97195684176611152

>  <r_i_glide_esite>  (1) 
-0.0025597336676550929

>  <r_i_glide_evdw>  (1) 
-26.236108869434087

>  <r_i_glide_gscore>  (1) 
-5.1645272554896122

>  <r_i_glide_gscore_strain>  (1) 
0.39688024999344407

>  <r_i_glide_hbond>  (1) 
-0.45599999999999996

>  <r_i_glide_ligand_efficiency>  (1) 
-0.1517599050469782

>  <r_i_glide_ligand_efficiency_ln>  (1) 
-1.0874617458812794

>  <r_i_glide_ligand_efficiency_sa>  (1) 
-0.48180766583633461

>  <r_i_glide_lipo>  (1) 
-2.1616824305023541

>  <r_i_glide_metal>  (1) 
-0

>  <r_i_glide_rewards>  (1) 
-1.5654141074122638

>  <r_lp_Energy>  (1) 
79.058359999999993

>  <s_epik_Chemistry_Notes>  (1) 
This compound contains an acetal/aminal-like group ( X-CH(R)-Y where X, Y are N, S, or O) that may be acid/base labile, releasing an aldehyde. This compound has a N-S or N-O group and may undergo hydrolysis at high or low pH.

>  <s_epik_cmdline>  (1) 
J2VwaWtfcHl0aG9uJywgJy1waHQnLCAnMS4wJywgJy1waCcsICc3LjQnLCAnLXRuJywgJzgnLCAnLW1hJywgJzUwMCcsICctaW1hZScsICc8aW5maWxlLm1hZT4nLCAnLW9tYWUnLCAnPG91dGZpbGUubWFlPic=

>  <s_epik_input>  (1) 
W0NIM11OKFtPSF0pYyhbY0hdMSlbY0hdYyhjMmMxMylbQ0BASF0yT1tOSF1bQ0BdKFtDSDNdKShbQ0BIXTNbT0hdKVtDSDJdW0NAQEhdKFtPSF0pW0NIMl1bQ0BASF0oW0NIMl00KVtDQEhdNFtDSDJdTihbQ0gzXSlbQ0BASF0oW0NIMl1bT0hdKVtDSF0oW09IXSlbT0hd

>  <s_glide_docking_method>  (1) 
confgen

>  <s_i_glide_gridfile>  (1) 
gpcr_drd2_6luq_protein_autoprepared_prepared

>  <s_lp_Force_Field>  (1) 
S-OPLS

>  <s_lp_Variant>  (1) 
DiffSBDD_81-1

>  <s_m_source_file>  (1) 
generated_generic_title2_ligand_DiffSBDD_2026-06-23_prepared.sdf

>  <GenAI_Model>  (1) 
DiffSBDD

>  <Protein>  (1) 
generic_title2

$$$$
DiffSBDD_38
     RDKit          3D

  0  0  0  0  0  0  0  0  0  0999 V3000
M  V30 BEGIN CTAB
M  V30 COUNTS 86 90 0 0 1
M  V30 BEGIN ATOM
M  V30 1 C 7.145424 4.876133 -14.000011 0 CFG=2
M  V30 2 C 8.920982 3.176100 -18.526715 0
M  V30 3 C 8.964110 6.670722 -10.980393 0
M  V30 4 C 7.828429 2.225402 -15.765849 0
M  V30 5 C 11.098706 0.766819 -18.177806 0 CFG=1
M  V30 6 C 7.732292 5.754035 -11.109536 0 CFG=2
M  V30 7 C 10.542981 7.514689 -7.695014 0
M  V30 8 F 11.768756 2.245365 -20.072714 0
M  V30 9 C 8.658309 1.545586 -16.604172 0
M  V30 10 C 10.016247 4.128883 -17.967694 0 CFG=2
M  V30 11 C 7.008340 3.428490 -16.179177 0
M  V30 12 O 11.518300 8.487377 -7.294530 0
M  V30 13 C 8.015840 4.332086 -11.597732 0
M  V30 14 C 9.730385 4.753001 -16.567241 0
M  V30 15 C 8.336119 2.551079 -13.269265 0
M  V30 16 O 7.906718 0.385358 -14.162391 0
M  V30 17 C 12.130873 0.050038 -19.026480 0
M  V30 18 C 5.932460 5.659777 -16.047056 0
M  V30 19 C 8.211730 4.108575 -13.132135 0 CFG=1
M  V30 20 C 12.784706 8.369036 -7.943920 0
M  V30 21 C 7.583696 1.753239 -14.337347 0 CFG=2
M  V30 22 O 8.655400 -0.212493 -21.046339 0
M  V30 23 C 7.205684 4.845543 -15.605872 0 CFG=1
M  V30 24 O 9.580435 6.487882 -9.709039 0
M  V30 25 C 10.482267 5.162319 -19.018923 0
M  V30 26 C 12.606191 8.314975 -9.435887 0
M  V30 27 O 9.434414 4.710389 -13.464819 0
M  V30 28 F 9.422993 7.686862 -6.994326 0
M  V30 29 C 12.145379 1.548254 -18.938521 0
M  V30 30 F 10.987629 6.276298 -7.461545 0
M  V30 31 N 9.722876 0.834441 -18.658198 0
M  V30 32 C 8.411797 5.533103 -16.331071 0 CFG=2
M  V30 33 C 6.620944 6.364834 -11.962420 0
M  V30 34 F 13.164383 2.144423 -18.218800 0
M  V30 35 C 11.444808 7.999332 -10.006470 0
M  V30 36 N 8.999580 1.844173 -17.935216 0
M  V30 37 O 7.993622 5.989144 -17.611925 0
M  V30 38 C 8.921147 -0.423299 -18.734420 0 CFG=2
M  V30 39 C 10.200681 7.670410 -9.207124 0 CFG=2
M  V30 40 C 9.157034 -1.498578 -17.649626 0
M  V30 41 C 6.979004 6.330495 -13.445843 0
M  V30 42 O 9.247952 -1.015309 -19.982033 0
M  V30 43 H 6.209245 4.382055 -13.738652 0
M  V30 44 H 9.151236 3.019325 -19.581719 0
M  V30 45 H 7.933696 3.610668 -18.584851 0
M  V30 46 H 9.689443 6.504918 -11.772802 0
M  V30 47 H 8.628685 7.702736 -11.094680 0
M  V30 48 H 11.274470 0.645786 -17.119397 0
M  V30 49 H 7.319456 5.649430 -10.104881 0
M  V30 50 H 9.156419 0.670951 -16.253585 0
M  V30 51 H 10.905887 3.524758 -17.803991 0
M  V30 52 H 6.599990 3.369878 -17.186094 0
M  V30 53 H 6.175528 3.143639 -15.585108 0
M  V30 54 H 8.852613 3.915027 -11.034280 0
M  V30 55 H 7.131785 3.772174 -11.290019 0
M  V30 56 H 10.554459 5.432976 -16.346242 0
M  V30 57 H 9.827140 3.990436 -15.809316 0
M  V30 58 H 9.371359 2.239496 -13.185002 0
M  V30 59 H 7.925015 2.088508 -12.384956 0
M  V30 60 H 7.108649 -0.098716 -14.004477 0
M  V30 61 H 12.912824 -0.490228 -18.496941 0
M  V30 62 H 11.814460 -0.382477 -19.972948 0
M  V30 63 H 6.117401 6.735140 -16.034557 0
M  V30 64 H 5.614734 5.454954 -17.070405 0
M  V30 65 H 5.071190 5.511354 -15.398828 0
M  V30 66 H 13.272154 7.453334 -7.629494 0
M  V30 67 H 13.434929 9.189472 -7.655256 0
M  V30 68 H 6.517611 1.794580 -14.106975 0
M  V30 69 H 7.807637 -0.622236 -21.136811 0
M  V30 70 H 9.672499 5.780854 -19.400917 0
M  V30 71 H 11.240173 5.827243 -18.603961 0
M  V30 72 H 10.927102 4.669162 -19.882324 0
M  V30 73 H 13.470177 8.539144 -10.045807 0
M  V30 74 H 10.148835 4.251036 -13.044799 0
M  V30 75 H 8.659727 6.386585 -15.703841 0
M  V30 76 H 6.422044 7.386909 -11.644708 0
M  V30 77 H 5.687421 5.824751 -11.794065 0
M  V30 78 H 11.361300 7.970989 -11.081910 0
M  V30 79 H 7.687480 5.245521 -18.103421 0
M  V30 80 H 7.856584 -0.183072 -18.750714 0
M  V30 81 H 9.531252 8.526562 -9.300468 0
M  V30 82 H 8.670145 -1.268131 -16.705468 0
M  V30 83 H 8.740766 -2.455309 -17.962538 0
M  V30 84 H 10.214673 -1.651146 -17.445892 0
M  V30 85 H 7.879546 6.917499 -13.622459 0
M  V30 86 H 6.171252 6.879865 -13.919687 0
M  V30 END ATOM
M  V30 BEGIN BOND
M  V30 1 1 6 3
M  V30 2 2 9 4
M  V30 3 1 10 2
M  V30 4 1 11 4
M  V30 5 1 12 7
M  V30 6 1 13 6
M  V30 7 1 14 10
M  V30 8 1 17 5
M  V30 9 1 19 1
M  V30 10 1 19 13
M  V30 11 1 19 15
M  V30 12 1 20 12
M  V30 13 1 21 4
M  V30 14 1 21 15
M  V30 15 1 21 16
M  V30 16 1 23 1
M  V30 17 1 23 11
M  V30 18 1 23 18 CFG=3
M  V30 19 1 24 3
M  V30 20 1 25 10
M  V30 21 1 26 20
M  V30 22 1 19 27 CFG=3
M  V30 23 1 28 7
M  V30 24 1 29 5
M  V30 25 1 29 8
M  V30 26 1 29 17
M  V30 27 1 30 7
M  V30 28 1 31 5
M  V30 29 1 32 14
M  V30 30 1 32 23
M  V30 31 1 33 6
M  V30 32 1 34 29
M  V30 33 2 35 26
M  V30 34 1 36 2
M  V30 35 1 36 9
M  V30 36 1 36 31
M  V30 37 1 37 32
M  V30 38 1 38 31
M  V30 39 1 39 7
M  V30 40 1 39 24
M  V30 41 1 39 35
M  V30 42 1 40 38
M  V30 43 1 41 1
M  V30 44 1 41 33
M  V30 45 1 42 22
M  V30 46 1 42 38
M  V30 47 1 1 43 CFG=3
M  V30 48 1 44 2
M  V30 49 1 45 2
M  V30 50 1 46 3
M  V30 51 1 47 3
M  V30 52 1 5 48 CFG=1
M  V30 53 1 6 49 CFG=1
M  V30 54 1 50 9
M  V30 55 1 10 51 CFG=1
M  V30 56 1 52 11
M  V30 57 1 53 11
M  V30 58 1 54 13
M  V30 59 1 55 13
M  V30 60 1 56 14
M  V30 61 1 57 14
M  V30 62 1 58 15
M  V30 63 1 59 15
M  V30 64 1 60 16
M  V30 65 1 61 17
M  V30 66 1 62 17
M  V30 67 1 63 18
M  V30 68 1 64 18
M  V30 69 1 65 18
M  V30 70 1 66 20
M  V30 71 1 67 20
M  V30 72 1 21 68 CFG=1
M  V30 73 1 69 22
M  V30 74 1 70 25
M  V30 75 1 71 25
M  V30 76 1 72 25
M  V30 77 1 73 26
M  V30 78 1 74 27
M  V30 79 1 32 75 CFG=1
M  V30 80 1 76 33
M  V30 81 1 77 33
M  V30 82 1 78 35
M  V30 83 1 79 37
M  V30 84 1 38 80 CFG=3
M  V30 85 1 39 81 CFG=1
M  V30 86 1 82 40
M  V30 87 1 83 40
M  V30 88 1 84 40
M  V30 89 1 85 41
M  V30 90 1 86 41
M  V30 END BOND
M  V30 END CTAB
M  END
>  <i_epik_Tot_Q>  (1) 
0

>  <i_epik_Tot_abs_Q>  (1) 
0

>  <i_i_glide_confnum>  (1) 
724

>  <i_i_glide_lignum>  (1) 
64

>  <i_i_glide_posenum>  (1) 
398

>  <i_i_glide_rotatable_bonds>  (1) 
11

>  <i_lp_mmshare_version>  (1) 
72125

>  <i_m_source_file_index>  (1) 
39

>  <i_f3d_flags>  (1) 
0

>  <num_sample>  (1) 
100

>  <b_lp_Chiralities_Consistent>  (1) 
1

>  <r_epik_Charging_Adjusted_Penalty>  (1) 
0

>  <r_epik_Ionization_Penalty>  (1) 
2.4228423565681287e-05

>  <r_epik_Ionization_Penalty_Charging>  (1) 
0

>  <r_epik_Ionization_Penalty_Neutral>  (1) 
2.4228423565681287e-05

>  <r_epik_State_Penalty>  (1) 
-0

>  <r_glide_ring_energy>  (1) 
0.27259175540770147

>  <r_i_docking_score>  (1) 
-4.8492249744597373

>  <r_i_glide_ecoul>  (1) 
-2.1168289389840744

>  <r_i_glide_eff_state_penalty>  (1) 
-0

>  <r_i_glide_einternal>  (1) 
3.8864148697075596

>  <r_i_glide_emodel>  (1) 
-42.673355724649866

>  <r_i_glide_emodel_strain>  (1) 
2.905701841871263

>  <r_i_glide_energy>  (1) 
-25.822062944210906

>  <r_i_glide_erotb>  (1) 
0.27413222911568258

>  <r_i_glide_esite>  (1) 
-0.068674968377918269

>  <r_i_glide_evdw>  (1) 
-23.705234005226831

>  <r_i_glide_gscore>  (1) 
-4.8492249744597373

>  <r_i_glide_gscore_strain>  (1) 
0

>  <r_i_glide_hbond>  (1) 
-0.14239612841483998

>  <r_i_glide_ligand_efficiency>  (1) 
-0.1154577374871366

>  <r_i_glide_ligand_efficiency_ln>  (1) 
-1.0235464616920227

>  <r_i_glide_ligand_efficiency_sa>  (1) 
-0.40133417186359199

>  <r_i_glide_lipo>  (1) 
-2.0970912457839233

>  <r_i_glide_metal>  (1) 
-0

>  <r_i_glide_rewards>  (1) 
-1.3124088198897852

>  <r_lp_Energy>  (1) 
66.758932000000001

>  <r_lp_tautomer_probability>  (1) 
1

>  <s_epik_Chemistry_Notes>  (1) 
This compound contains an acetal/aminal-like group ( X-CH(R)-Y where X, Y are N, S, or O) that may be acid/base labile, releasing an aldehyde.

>  <s_epik_cmdline>  (1) 
J2VwaWtfcHl0aG9uJywgJy1waHQnLCAnMS4wJywgJy1waCcsICc3LjQnLCAnLXRuJywgJzgnLCAnLW1hJywgJzUwMCcsICctaW1hZScsICc8aW5maWxlLm1hZT4nLCAnLW9tYWUnLCAnPG91dGZpbGUubWFlPic=

>  <s_epik_input>  (1) 
W09IXVtDQEBIXTFbQ0gyXVtDQEhdKFtDSDNdKVtDSDJdTihOKFtDQEBIXShbQ0gyXTIpQzIoRilGKVtDQEhdKFtDSDNdKU9bT0hdKS9bQ0hdPUMoW0NASF0oW0NIMl0zKVtPSF0pXFtDSDJdW0NAQF0xKFtDSDNdKVtDQEBIXShbQ0BdMzRbT0hdKVtDSDJdW0NIMl1bQ0BASF0oW0NIMl00KVtDSDJdT1tDQEBIXTVbQ0hdPVtDSF1bQ0gyXU9DNShGKUY=

>  <s_glide_docking_method>  (1) 
confgen

>  <s_i_glide_gridfile>  (1) 
gpcr_drd2_6luq_protein_autoprepared_prepared

>  <s_lp_Force_Field>  (1) 
S-OPLS

>  <s_lp_Variant>  (1) 
DiffSBDD_38-1

>  <s_m_source_file>  (1) 
generated_generic_title2_ligand_DiffSBDD_2026-06-23_prepared.sdf

>  <GenAI_Model>  (1) 
DiffSBDD

>  <Protein>  (1) 
generic_title2

$$$$
DiffSBDD_25
     RDKit          3D

  0  0  0  0  0  0  0  0  0  0999 V3000
M  V30 BEGIN CTAB
M  V30 COUNTS 64 67 0 0 1
M  V30 BEGIN ATOM
M  V30 1 C 6.925157 0.598005 -12.978222 0
M  V30 2 C 10.451243 6.219410 -5.790322 0
M  V30 3 C 10.149792 5.714547 -12.713277 0
M  V30 4 C 10.181508 6.661744 -10.438630 0
M  V30 5 N 9.413840 6.458136 -11.664160 0
M  V30 6 C 12.167521 9.604703 -5.616601 0
M  V30 7 C 8.577333 8.545186 -12.384965 0
M  V30 8 C 11.424922 8.511598 -6.106743 0
M  V30 9 C 9.404221 4.711381 -13.676281 0 CFG=1
M  V30 10 C 6.636914 3.082237 -12.702672 0
M  V30 11 C 7.009173 6.791921 -11.984964 0
M  V30 12 O 9.177448 5.384671 -7.620772 0
M  V30 13 C 5.436548 5.013883 -11.271789 0 CFG=1
M  V30 14 C 8.331828 4.634262 -15.988850 0
M  V30 15 C 10.867749 8.533761 -7.469023 0
M  V30 16 C 11.228735 7.389173 -5.283569 0
M  V30 17 C 9.017701 3.354636 -13.014012 0
M  V30 18 C 10.136262 7.527486 -7.997214 0
M  V30 19 C 6.540638 1.920632 -13.663205 0
M  V30 20 O 7.375234 3.863441 -16.211018 0
M  V30 21 C 6.700584 5.722201 -11.261523 0
M  V30 22 C 5.421875 3.681022 -12.053937 0 CFG=2
M  V30 23 C 12.713424 9.562379 -4.316471 0
M  V30 24 C 9.858886 6.317127 -7.196424 0
M  V30 25 C 8.352655 7.297066 -12.000109 0
M  V30 26 C 8.349963 5.343546 -14.636760 0
M  V30 27 C 5.429943 3.715594 -10.537956 0
M  V30 28 C 12.516356 8.436968 -3.502615 0
M  V30 29 C 11.775395 7.350076 -3.984663 0
M  V30 30 C 9.529716 7.554274 -9.390092 0
M  V30 31 N 7.779204 3.598553 -12.385099 0 CHG=1
M  V30 32 O 9.277933 4.875075 -16.768970 0 CHG=-1
M  V30 33 H 6.785606 -0.236037 -13.666617 0
M  V30 34 H 6.300885 0.397016 -12.106765 0
M  V30 35 H 7.967979 0.584678 -12.661208 0
M  V30 36 H 11.182518 5.418327 -5.796588 0
M  V30 37 H 9.658951 5.990516 -5.080103 0
M  V30 38 H 10.683875 6.442606 -13.317500 0
M  V30 39 H 10.947938 5.172088 -12.214261 0
M  V30 40 H 11.203344 6.975306 -10.652827 0
M  V30 41 H 10.175408 5.664361 -9.998104 0
M  V30 42 H 12.322630 10.474918 -6.238417 0
M  V30 43 H 7.775320 9.190592 -12.669171 0
M  V30 44 H 9.577909 8.937445 -12.418158 0
M  V30 45 H 10.176833 4.412252 -14.363326 0
M  V30 46 H 6.253194 7.260976 -12.598592 0
M  V30 47 H 4.566147 5.649899 -11.187015 0
M  V30 48 H 11.062962 9.412405 -8.061459 0
M  V30 49 H 8.973197 2.447654 -13.585392 0
M  V30 50 H 9.721134 3.130037 -12.213094 0
M  V30 51 H 5.507726 1.827893 -13.982991 0
M  V30 52 H 7.470281 5.291109 -10.637639 0
M  V30 53 H 13.289882 10.389712 -3.946177 0
M  V30 54 H 7.343181 5.352642 -14.224118 0
M  V30 55 H 8.575384 6.387359 -14.836838 0
M  V30 56 H 6.341587 3.535494 -9.981718 0
M  V30 57 H 4.575400 3.425212 -9.985069 0
M  V30 58 H 12.937755 8.406872 -2.508326 0
M  V30 59 H 11.625338 6.480015 -3.360483 0
M  V30 60 H 9.373134 8.577859 -9.729375 0
M  V30 61 H 8.575549 7.062221 -9.277815 0
M  V30 62 H 4.550448 3.591471 -12.700732 0
M  V30 63 H 7.130080 2.080091 -14.561100 0
M  V30 64 H 7.773689 4.361655 -11.714833 0
M  V30 END ATOM
M  V30 BEGIN BOND
M  V30 1 1 5 3
M  V30 2 1 5 4
M  V30 3 2 8 6
M  V30 4 1 9 3
M  V30 5 1 15 8
M  V30 6 1 16 2
M  V30 7 1 16 8
M  V30 8 1 17 9
M  V30 9 2 18 15
M  V30 10 1 19 1
M  V30 11 1 19 10
M  V30 12 2 20 14
M  V30 13 2 21 11
M  V30 14 1 21 13
M  V30 15 1 22 10
M  V30 16 1 22 13
M  V30 17 1 23 6
M  V30 18 1 24 2
M  V30 19 2 24 12
M  V30 20 1 24 18
M  V30 21 1 25 5
M  V30 22 2 25 7
M  V30 23 1 25 11
M  V30 24 1 26 9
M  V30 25 1 26 14
M  V30 26 1 27 13
M  V30 27 1 27 22
M  V30 28 2 28 23
M  V30 29 2 29 16
M  V30 30 1 29 28
M  V30 31 1 30 4
M  V30 32 1 30 18
M  V30 33 2 31 10
M  V30 34 1 31 17
M  V30 35 1 32 14
M  V30 36 1 33 1
M  V30 37 1 34 1
M  V30 38 1 35 1
M  V30 39 1 36 2
M  V30 40 1 37 2
M  V30 41 1 38 3
M  V30 42 1 39 3
M  V30 43 1 40 4
M  V30 44 1 41 4
M  V30 45 1 42 6
M  V30 46 1 43 7
M  V30 47 1 44 7
M  V30 48 1 9 45 CFG=3
M  V30 49 1 46 11
M  V30 50 1 13 47 CFG=1
M  V30 51 1 48 15
M  V30 52 1 49 17
M  V30 53 1 50 17
M  V30 54 1 51 19
M  V30 55 1 52 21
M  V30 56 1 53 23
M  V30 57 1 54 26
M  V30 58 1 55 26
M  V30 59 1 56 27
M  V30 60 1 57 27
M  V30 61 1 58 28
M  V30 62 1 59 29
M  V30 63 1 60 30
M  V30 64 1 61 30
M  V30 65 1 22 62 CFG=1
M  V30 66 1 63 19
M  V30 67 1 64 31
M  V30 END BOND
M  V30 END CTAB
M  END
>  <i_epik_Tot_Q>  (1) 
0

>  <i_epik_Tot_abs_Q>  (1) 
2

>  <i_i_glide_confnum>  (1) 
48

>  <i_i_glide_lignum>  (1) 
43

>  <i_i_glide_posenum>  (1) 
143

>  <i_i_glide_rotatable_bonds>  (1) 
6

>  <i_lp_mmshare_version>  (1) 
72125

>  <i_m_source_file_index>  (1) 
26

>  <i_f3d_flags>  (1) 
0

>  <num_sample>  (1) 
100

>  <b_lp_Chiralities_Consistent>  (1) 
1

>  <r_epik_Charging_Adjusted_Penalty>  (1) 
0.12353365736142194

>  <r_epik_Ionization_Penalty>  (1) 
13.465358995569625

>  <r_epik_Ionization_Penalty_Charging>  (1) 
0.062700894571276394

>  <r_epik_Ionization_Penalty_Neutral>  (1) 
13.402658100998348

>  <r_epik_State_Penalty>  (1) 
0.060832762790145552

>  <r_glide_ring_energy>  (1) 
0

>  <r_i_docking_score>  (1) 
-4.8389986638343103

>  <r_i_glide_ecoul>  (1) 
-1.2470227263651386

>  <r_i_glide_eff_state_penalty>  (1) 
0.060832762790145552

>  <r_i_glide_einternal>  (1) 
4.4401786348325096

>  <r_i_glide_emodel>  (1) 
-17.456776440355078

>  <r_i_glide_emodel_strain>  (1) 
2.5749084967450955

>  <r_i_glide_energy>  (1) 
-13.812672079879365

>  <r_i_glide_erotb>  (1) 
0.42539970400538585

>  <r_i_glide_esite>  (1) 
-0.017608842154468795

>  <r_i_glide_evdw>  (1) 
-12.565649353514226

>  <r_i_glide_gscore>  (1) 
-4.8998314266244556

>  <r_i_glide_gscore_strain>  (1) 
0

>  <r_i_glide_hbond>  (1) 
0

>  <r_i_glide_ligand_efficiency>  (1) 
-0.1512187082448222

>  <r_i_glide_ligand_efficiency_ln>  (1) 
-1.0835837069542271

>  <r_i_glide_ligand_efficiency_sa>  (1) 
-0.48008947309020605

>  <r_i_glide_lipo>  (1) 
-2.8093050007514062

>  <r_i_glide_metal>  (1) 
-0

>  <r_i_glide_rewards>  (1) 
-1.6829814110934849

>  <r_lp_Energy>  (1) 
49.732040999999995

>  <s_epik_Chemistry_Notes>  (1) 
This compound has an imine and may undergo hydrolysis.

>  <s_epik_cmdline>  (1) 
J2VwaWtfcHl0aG9uJywgJy1waHQnLCAnMS4wJywgJy1waCcsICc3LjQnLCAnLXRuJywgJzgnLCAnLW1hJywgJzUwMCcsICctaW1hZScsICc8aW5maWxlLm1hZT4nLCAnLW9tYWUnLCAnPG91dGZpbGUubWFlPic=

>  <s_epik_input>  (1) 
W0NIM10vW0NIXT1DKFxbQ0BIXShbQ0BIXTEyKVtDSDJdMilbTkhdW0NIMl1bQ0BASF0oW0NIMl1DKD1PKVtPSF0pW0NIMl1OKEMoPVtDSDJdKS9bQ0hdPVtDSF0vMSlbQ0gyXVtDSDJdQyg9W0NIXTMpQyg9TylbQ0gyXWMoYzM0KVtjSF1bY0hdW2NIXVtjSF00

>  <s_glide_docking_method>  (1) 
confgen

>  <s_i_glide_gridfile>  (1) 
gpcr_drd2_6luq_protein_autoprepared_prepared

>  <s_lp_Force_Field>  (1) 
S-OPLS

>  <s_lp_Variant>  (1) 
DiffSBDD_25-1

>  <s_m_source_file>  (1) 
generated_generic_title2_ligand_DiffSBDD_2026-06-23_prepared.sdf

>  <GenAI_Model>  (1) 
DiffSBDD

>  <Protein>  (1) 
generic_title2

$$$$
DiffSBDD_1
     RDKit          3D

  0  0  0  0  0  0  0  0  0  0999 V3000
M  V30 BEGIN CTAB
M  V30 COUNTS 73 75 0 0 1
M  V30 BEGIN ATOM
M  V30 1 F 9.903436 7.183667 -19.325209 0
M  V30 2 C 9.488274 5.986174 -8.047061 0
M  V30 3 C 6.381449 6.749503 -20.320923 0
M  V30 4 C 8.879716 6.333510 -19.497363 0
M  V30 5 C 8.096136 6.844222 -12.784040 0 CFG=1
M  V30 6 C 6.904031 3.674775 -17.992306 0
M  V30 7 F 8.046360 5.699951 -21.644761 0
M  V30 8 C 11.664922 8.411164 -7.752620 0
M  V30 9 C 6.389474 5.056731 -18.431784 0 CFG=1
M  V30 10 C 5.663564 5.519653 -19.693099 0
M  V30 11 C 9.237922 6.276769 -11.899094 0
M  V30 12 C 6.242262 6.088522 -17.273749 0 CFG=1
M  V30 13 C 5.625130 4.014937 -13.178163 0
M  V30 14 O 8.986940 4.440412 -10.385928 0
M  V30 15 C 6.564823 6.357150 -14.821127 0
M  V30 16 C 7.233258 5.795701 -13.541761 0 CFG=2
M  V30 17 C 9.373884 6.581248 -9.251953 0
M  V30 18 C 9.774945 8.040830 -9.461284 0
M  V30 19 N 8.753428 5.339468 -18.694324 0
M  V30 20 C 6.354494 2.755072 -12.701679 0
M  V30 21 O 8.174419 0.743505 -15.975856 0
M  V30 22 O 4.865872 6.396963 -17.124800 0
M  V30 23 C 5.838924 1.488713 -13.385339 0
M  V30 24 C 7.896889 6.598422 -20.669270 0 CFG=1
M  V30 25 C 8.009675 0.939793 -14.588551 0
M  V30 26 C 8.790840 5.838154 -10.478411 0 CFG=1
M  V30 27 C 6.562920 0.699512 -14.204297 0
M  V30 28 O 5.810200 7.327079 -14.755682 0
M  V30 29 C 7.673246 4.440797 -18.998810 0 CFG=1
M  V30 30 O 7.370554 7.879392 -12.145603 0
M  V30 31 C 11.456797 7.159038 -6.882278 0
M  V30 32 N 6.842194 5.719561 -15.979346 0
M  V30 33 C 11.280336 8.270581 -9.237875 0
M  V30 34 C 10.001873 6.682314 -6.797652 0
M  V30 35 O 6.264984 5.191995 -12.677649 0
M  V30 36 H 9.180798 4.958029 -7.929122 0
M  V30 37 H 5.849422 7.015718 -21.234793 0
M  V30 38 H 6.256207 7.613273 -19.667914 0
M  V30 39 H 8.575404 7.394285 -13.578733 0
M  V30 40 H 7.393960 3.518821 -17.035137 0
M  V30 41 H 6.333162 2.817662 -18.344468 0
M  V30 42 H 11.100961 9.233182 -7.314377 0
M  V30 43 H 12.712925 8.705742 -7.691260 0
M  V30 44 H 5.622473 4.704938 -20.418021 0
M  V30 45 H 4.620559 5.754602 -19.481477 0
M  V30 46 H 9.687216 5.434984 -12.428829 0
M  V30 47 H 10.056995 6.991462 -11.860146 0
M  V30 48 H 6.736194 7.014486 -17.567288 0
M  V30 49 H 5.548512 4.008182 -14.262538 0
M  V30 50 H 4.600179 3.998296 -12.806732 0
M  V30 51 H 9.912877 4.255693 -10.419304 0
M  V30 52 H 7.914291 5.006275 -13.865627 0
M  V30 53 H 9.464098 8.415449 -10.432552 0
M  V30 54 H 9.202727 8.653717 -8.763797 0
M  V30 55 H 6.174639 2.658960 -11.632211 0
M  V30 56 H 7.428700 2.885164 -12.792092 0
M  V30 57 H 7.532678 1.265282 -16.432956 0
M  V30 58 H 4.778438 6.858464 -16.298728 0
M  V30 59 H 4.813835 1.221235 -13.184991 0
M  V30 60 H 8.215361 7.533799 -21.129671 0
M  V30 61 H 8.632815 0.227707 -14.047709 0
M  V30 62 H 8.364949 1.937974 -14.352080 0
M  V30 63 H 7.712287 5.969517 -10.398191 0
M  V30 64 H 6.097796 -0.179149 -14.630221 0
M  V30 65 H 7.738783 3.972867 -19.981155 0
M  V30 66 H 7.049616 7.590209 -11.294550 0
M  V30 67 H 11.775410 7.410200 -5.870395 0
M  V30 68 H 12.109099 6.344102 -7.185186 0
M  V30 69 H 7.473774 4.932247 -15.965441 0
M  V30 70 H 11.562238 9.194796 -9.742678 0
M  V30 71 H 11.863548 7.482401 -9.714781 0
M  V30 72 H 9.337720 7.515971 -6.561867 0
M  V30 73 H 9.903175 5.990011 -5.963723 0
M  V30 END ATOM
M  V30 BEGIN BOND
M  V30 1 1 4 1
M  V30 2 1 9 6 CFG=1
M  V30 3 1 10 3
M  V30 4 1 10 9
M  V30 5 1 11 5
M  V30 6 1 12 9
M  V30 7 1 16 5
M  V30 8 1 16 15
M  V30 9 2 17 2
M  V30 10 1 18 17
M  V30 11 2 19 4
M  V30 12 1 20 13
M  V30 13 1 22 12
M  V30 14 1 23 20
M  V30 15 1 24 3
M  V30 16 1 24 4
M  V30 17 1 24 7
M  V30 18 1 25 21
M  V30 19 1 26 11
M  V30 20 1 26 14
M  V30 21 1 26 17
M  V30 22 2 27 23
M  V30 23 1 27 25
M  V30 24 2 28 15
M  V30 25 1 29 6
M  V30 26 1 29 9
M  V30 27 1 29 19
M  V30 28 1 30 5
M  V30 29 1 31 8
M  V30 30 1 32 12
M  V30 31 1 32 15
M  V30 32 1 33 8
M  V30 33 1 33 18
M  V30 34 1 34 2
M  V30 35 1 34 31
M  V30 36 1 35 13
M  V30 37 1 35 16
M  V30 38 1 36 2
M  V30 39 1 37 3
M  V30 40 1 38 3
M  V30 41 1 5 39 CFG=3
M  V30 42 1 40 6
M  V30 43 1 41 6
M  V30 44 1 42 8
M  V30 45 1 43 8
M  V30 46 1 44 10
M  V30 47 1 45 10
M  V30 48 1 46 11
M  V30 49 1 47 11
M  V30 50 1 12 48 CFG=3
M  V30 51 1 49 13
M  V30 52 1 50 13
M  V30 53 1 51 14
M  V30 54 1 16 52 CFG=3
M  V30 55 1 53 18
M  V30 56 1 54 18
M  V30 57 1 55 20
M  V30 58 1 56 20
M  V30 59 1 57 21
M  V30 60 1 58 22
M  V30 61 1 59 23
M  V30 62 1 24 60 CFG=3
M  V30 63 1 61 25
M  V30 64 1 62 25
M  V30 65 1 26 63 CFG=3
M  V30 66 1 64 27
M  V30 67 1 29 65 CFG=3
M  V30 68 1 66 30
M  V30 69 1 67 31
M  V30 70 1 68 31
M  V30 71 1 69 32
M  V30 72 1 70 33
M  V30 73 1 71 33
M  V30 74 1 72 34
M  V30 75 1 73 34
M  V30 END BOND
M  V30 END CTAB
M  END
>  <i_epik_Tot_Q>  (1) 
0

>  <i_epik_Tot_abs_Q>  (1) 
0

>  <i_i_glide_confnum>  (1) 
1864

>  <i_i_glide_lignum>  (1) 
2

>  <i_i_glide_posenum>  (1) 
334

>  <i_i_glide_rotatable_bonds>  (1) 
17

>  <i_lp_mmshare_version>  (1) 
72125

>  <i_m_source_file_index>  (1) 
2

>  <i_f3d_flags>  (1) 
0

>  <num_sample>  (1) 
100

>  <b_lp_Chiralities_Consistent>  (1) 
1

>  <r_epik_Charging_Adjusted_Penalty>  (1) 
0

>  <r_epik_Ionization_Penalty>  (1) 
3.3646854675809213e-05

>  <r_epik_Ionization_Penalty_Charging>  (1) 
0

>  <r_epik_Ionization_Penalty_Neutral>  (1) 
3.3646854675809213e-05

>  <r_epik_State_Penalty>  (1) 
-0

>  <r_glide_ring_energy>  (1) 
0.00078572505473429135

>  <r_i_docking_score>  (1) 
-4.8386471803257498

>  <r_i_glide_ecoul>  (1) 
-2.8958631993168913

>  <r_i_glide_eff_state_penalty>  (1) 
-0

>  <r_i_glide_einternal>  (1) 
22.243145428552364

>  <r_i_glide_emodel>  (1) 
-35.153379988762282

>  <r_i_glide_emodel_strain>  (1) 
3.5251784216557098

>  <r_i_glide_energy>  (1) 
-39.409869938639503

>  <r_i_glide_erotb>  (1) 
0.89639897310018468

>  <r_i_glide_esite>  (1) 
0

>  <r_i_glide_evdw>  (1) 
-36.51400673932261

>  <r_i_glide_gscore>  (1) 
-4.8386471803257498

>  <r_i_glide_gscore_strain>  (1) 
0

>  <r_i_glide_hbond>  (1) 
-0.15810335601200268

>  <r_i_glide_ligand_efficiency>  (1) 
-0.13824706229502143

>  <r_i_glide_ligand_efficiency_ln>  (1) 
-1.0621904440697578

>  <r_i_glide_ligand_efficiency_sa>  (1) 
-0.4522153079557879

>  <r_i_glide_lipo>  (1) 
-2.1494489419492115

>  <r_i_glide_metal>  (1) 
-0

>  <r_i_glide_rewards>  (1) 
-1.1674140386010565

>  <r_lp_Energy>  (1) 
34.404662999999999

>  <r_lp_tautomer_probability>  (1) 
1

>  <s_epik_Chemistry_Notes>  (1) 
This compound has an imine and may undergo hydrolysis. This compound contains an acetal/aminal-like group ( X-CH(R)-Y where X, Y are N, S, or O) that may be acid/base labile, releasing an aldehyde.

>  <s_epik_cmdline>  (1) 
J2VwaWtfcHl0aG9uJywgJy1waHQnLCAnMS4wJywgJy1waCcsICc3LjQnLCAnLXRuJywgJzgnLCAnLW1hJywgJzUwMCcsICctaW1hZScsICc8aW5maWxlLm1hZT4nLCAnLW9tYWUnLCAnPG91dGZpbGUubWFlPic=

>  <s_epik_input>  (1) 
W0NIMl0xW0NIMl1bQ0BIXShGKUMoRik9TltDQEBIXShbQ0gyXTIpQzEyW0NAQEhdKFtPSF0pW05IXUMoPU8pW0NASF0oT1tDSDJdW0NIMl0vW0NIXT1bQ0hdXFtDSDJdW09IXSlbQ0BASF0oW09IXSlbQ0gyXVtDQEBIXShbT0hdKUMzPVtDSF1bQ0gyXVtDSDJdW0NIMl1bQ0gyXVtDSDJdMw==

>  <s_glide_docking_method>  (1) 
confgen

>  <s_i_glide_gridfile>  (1) 
gpcr_drd2_6luq_protein_autoprepared_prepared

>  <s_lp_Force_Field>  (1) 
S-OPLS

>  <s_lp_Variant>  (1) 
DiffSBDD_1-1

>  <s_m_source_file>  (1) 
generated_generic_title2_ligand_DiffSBDD_2026-06-23_prepared.sdf

>  <GenAI_Model>  (1) 
DiffSBDD

>  <Protein>  (1) 
generic_title2

$$$$
DiffSBDD_84
     RDKit          3D

  0  0  0  0  0  0  0  0  0  0999 V3000
M  V30 BEGIN CTAB
M  V30 COUNTS 42 43 0 0 1
M  V30 BEGIN ATOM
M  V30 1 C 11.784771 8.833624 -3.988981 0
M  V30 2 C 8.174172 5.061386 -14.771693 0
M  V30 3 C 11.775412 7.424774 -3.909737 0
M  V30 4 C 9.127527 5.696014 -10.153924 0
M  V30 5 O 9.775414 6.709238 -10.422944 0
M  V30 6 C 7.155221 6.284792 -12.918128 0
M  V30 7 N 8.823385 4.760756 -11.066309 0
M  V30 8 C 7.191596 5.570201 -15.643979 0
M  V30 9 C 6.192761 6.433633 -15.154626 0
M  V30 10 C 11.398079 9.474174 -5.185071 0
M  V30 11 C 12.186746 6.730845 -2.626601 0
M  V30 12 C 6.175420 6.790228 -13.792965 0
M  V30 13 O 12.160959 9.573338 -2.906652 0
M  V30 14 C 9.228056 4.860413 -12.467863 0
M  V30 15 C 11.000179 7.298705 -6.218336 0
M  V30 16 C 11.375411 6.663017 -5.021612 0
M  V30 17 C 8.159169 5.414990 -13.406114 0
M  V30 18 C 8.622875 5.446264 -8.726580 0
M  V30 19 C 10.601800 6.468930 -7.420378 0
M  V30 20 C 11.008426 8.704793 -6.300569 0
M  V30 21 C 9.088210 6.468294 -7.669140 0
M  V30 22 H 8.939688 4.399608 -15.149912 0
M  V30 23 H 7.136173 6.565362 -11.874881 0
M  V30 24 H 8.289040 3.952574 -10.784973 0
M  V30 25 H 7.204743 5.297901 -16.689010 0
M  V30 26 H 5.439989 6.823252 -15.824133 0
M  V30 27 H 11.402547 10.552475 -5.248972 0
M  V30 28 H 12.125423 5.646369 -2.718289 0
M  V30 29 H 13.215062 6.991894 -2.385071 0
M  V30 30 H 11.543136 7.039886 -1.802812 0
M  V30 31 H 5.409061 7.453403 -13.418330 0
M  V30 32 H 12.001291 10.498190 -2.995409 0
M  V30 33 H 10.139257 5.449924 -12.584466 0
M  V30 34 H 9.488607 3.853089 -12.794327 0
M  V30 35 H 11.367637 5.590228 -4.959812 0
M  V30 36 H 8.917016 4.443210 -8.416476 0
M  V30 37 H 7.533151 5.451523 -8.762522 0
M  V30 38 H 11.138596 6.854655 -8.286417 0
M  V30 39 H 10.956989 5.448434 -7.281772 0
M  V30 40 H 10.718463 9.190234 -7.219201 0
M  V30 41 H 8.575351 6.240595 -6.734125 0
M  V30 42 H 8.766271 7.471447 -7.947108 0
M  V30 END ATOM
M  V30 BEGIN BOND
M  V30 1 2 3 1
M  V30 2 2 5 4
M  V30 3 1 7 4
M  V30 4 1 8 2
M  V30 5 2 9 8
M  V30 6 1 10 1
M  V30 7 1 11 3
M  V30 8 2 12 6
M  V30 9 1 12 9
M  V30 10 1 13 1
M  V30 11 1 14 7
M  V30 12 1 16 3
M  V30 13 2 16 15
M  V30 14 2 17 2
M  V30 15 1 17 6
M  V30 16 1 17 14
M  V30 17 1 18 4
M  V30 18 1 19 15
M  V30 19 2 20 10
M  V30 20 1 20 15
M  V30 21 1 21 18
M  V30 22 1 21 19
M  V30 23 1 22 2
M  V30 24 1 23 6
M  V30 25 1 24 7
M  V30 26 1 25 8
M  V30 27 1 26 9
M  V30 28 1 27 10
M  V30 29 1 28 11
M  V30 30 1 29 11
M  V30 31 1 30 11
M  V30 32 1 31 12
M  V30 33 1 32 13
M  V30 34 1 33 14
M  V30 35 1 34 14
M  V30 36 1 35 16
M  V30 37 1 36 18
M  V30 38 1 37 18
M  V30 39 1 38 19
M  V30 40 1 39 19
M  V30 41 1 40 20
M  V30 42 1 41 21
M  V30 43 1 42 21
M  V30 END BOND
M  V30 END CTAB
M  END
>  <i_epik_Tot_Q>  (1) 
0

>  <i_epik_Tot_abs_Q>  (1) 
0

>  <i_i_glide_confnum>  (1) 
56

>  <i_i_glide_lignum>  (1) 
152

>  <i_i_glide_posenum>  (1) 
306

>  <i_i_glide_rotatable_bonds>  (1) 
8

>  <i_lp_mmshare_version>  (1) 
72125

>  <i_m_source_file_index>  (1) 
85

>  <i_f3d_flags>  (1) 
0

>  <num_sample>  (1) 
100

>  <b_lp_Chiralities_Consistent>  (1) 
1

>  <r_epik_Charging_Adjusted_Penalty>  (1) 
0

>  <r_epik_Ionization_Penalty>  (1) 
0.0004542944529878683

>  <r_epik_Ionization_Penalty_Charging>  (1) 
0

>  <r_epik_Ionization_Penalty_Neutral>  (1) 
0.0004542944529878683

>  <r_epik_State_Penalty>  (1) 
-0

>  <r_glide_ring_energy>  (1) 
0

>  <r_i_docking_score>  (1) 
-4.8304715803185996

>  <r_i_glide_ecoul>  (1) 
-1.3779278916420949

>  <r_i_glide_eff_state_penalty>  (1) 
-0

>  <r_i_glide_einternal>  (1) 
1.0369015593590418

>  <r_i_glide_emodel>  (1) 
-49.517146940948898

>  <r_i_glide_emodel_strain>  (1) 
0

>  <r_i_glide_energy>  (1) 
-38.170336815950613

>  <r_i_glide_erotb>  (1) 
2.7062369522687115

>  <r_i_glide_esite>  (1) 
-0.063094761697640014

>  <r_i_glide_evdw>  (1) 
-36.792408924308518

>  <r_i_glide_gscore>  (1) 
-4.8304715803185996

>  <r_i_glide_gscore_strain>  (1) 
0

>  <r_i_glide_hbond>  (1) 
0

>  <r_i_glide_ligand_efficiency>  (1) 
-0.2300224562056476

>  <r_i_glide_ligand_efficiency_ln>  (1) 
-1.1943243373468764

>  <r_i_glide_ligand_efficiency_sa>  (1) 
-0.63461451553632875

>  <r_i_glide_lipo>  (1) 
-3.0853478978768947

>  <r_i_glide_metal>  (1) 
-0

>  <r_i_glide_rewards>  (1) 
-2.3419562430510359

>  <r_lp_Energy>  (1) 
14.408657

>  <r_lp_tautomer_probability>  (1) 
1

>  <s_epik_cmdline>  (1) 
J2VwaWtfcHl0aG9uJywgJy1waHQnLCAnMS4wJywgJy1waCcsICc3LjQnLCAnLXRuJywgJzgnLCAnLW1hJywgJzUwMCcsICctaW1hZScsICc8aW5maWxlLm1hZT4nLCAnLW9tYWUnLCAnPG91dGZpbGUubWFlPic=

>  <s_epik_input>  (1) 
W09IXWMxYyhbQ0gzXSlbY0hdYyhbY0hdW2NIXTEpW0NIMl1bQ0gyXVtDSDJdQyg9TylbTkhdW0NIMl1jMltjSF1bY0hdW2NIXVtjSF1bY0hdMg==

>  <s_glide_docking_method>  (1) 
confgen

>  <s_i_glide_gridfile>  (1) 
gpcr_drd2_6luq_protein_autoprepared_prepared

>  <s_lp_Force_Field>  (1) 
S-OPLS

>  <s_lp_Variant>  (1) 
DiffSBDD_84-1

>  <s_m_source_file>  (1) 
generated_generic_title2_ligand_DiffSBDD_2026-06-23_prepared.sdf

>  <GenAI_Model>  (1) 
DiffSBDD

>  <Protein>  (1) 
generic_title2

$$$$
DiffSBDD_70
     RDKit          3D

  0  0  0  0  0  0  0  0  0  0999 V3000
M  V30 BEGIN CTAB
M  V30 COUNTS 74 78 0 0 1
M  V30 BEGIN ATOM
M  V30 1 C 7.122354 1.034888 -14.809128 0
M  V30 2 C 10.911273 7.136722 -11.853879 0
M  V30 3 C 9.073000 3.167742 -17.112650 0
M  V30 4 C 9.539029 6.464159 -11.822083 0
M  V30 5 C 17.322723 6.902945 -17.781987 0
M  V30 6 N 16.577068 4.792406 -16.868210 0
M  V30 7 C 5.877054 4.033190 -10.920372 0
M  V30 8 C 7.765316 5.590259 -10.186475 0 CFG=1
M  V30 9 C 7.888093 4.968400 -8.809063 0
M  V30 10 C 6.850202 2.126528 -17.449868 0
M  V30 11 C 7.059509 4.907122 -11.374439 0 CFG=2
M  V30 12 O 12.619552 5.923483 -17.157922 0
M  V30 13 C 9.108681 5.150463 -9.681346 0 CFG=2
M  V30 14 C 6.909624 5.739984 -13.845730 0
M  V30 15 C 6.493953 5.915237 -12.382422 0
M  V30 16 C 7.800490 2.752958 -16.401717 0 CFG=1
M  V30 17 C 15.669874 8.590927 -18.398123 0
M  V30 18 C 11.581657 5.060565 -16.695229 0
M  V30 19 O 8.158773 1.844477 -15.354276 0
M  V30 20 Cl 18.275764 9.241452 -18.790309 0
M  V30 21 C 7.418901 4.353868 -14.311374 0
M  V30 22 C 8.212959 5.282518 -16.588255 0 CFG=2
M  V30 23 C 17.010104 8.180270 -18.293404 0
M  V30 24 C 5.669783 6.908188 -12.002682 0
M  V30 25 C 7.377517 5.991317 -17.674188 0
M  V30 26 N 9.242955 4.472683 -17.168803 0
M  V30 27 C 14.641340 7.728238 -17.992471 0
M  V30 28 C 10.434829 5.116918 -17.712596 0
M  V30 29 C 16.297610 6.021676 -17.365323 0
M  V30 30 N 14.224750 4.352481 -16.552079 0
M  V30 31 C 15.524193 4.051272 -16.486182 0
M  V30 32 N 8.975711 6.379307 -10.453891 0 CFG=1 CHG=1
M  V30 33 O 9.862956 2.340395 -17.570158 0
M  V30 34 C 7.368300 4.185020 -15.848156 0 CFG=1
M  V30 35 C 13.952871 5.572686 -17.059858 0
M  V30 36 C 14.957407 6.453881 -17.478080 0
M  V30 37 H 7.450696 0.617641 -13.856949 0
M  V30 38 H 6.202523 1.590649 -14.630564 0
M  V30 39 H 6.894398 0.200486 -15.472890 0
M  V30 40 H 11.129594 7.482958 -12.862877 0
M  V30 41 H 10.952110 7.988767 -11.179273 0
M  V30 42 H 11.710474 6.456026 -11.585989 0
M  V30 43 H 9.589137 5.498496 -12.324455 0
M  V30 44 H 8.873887 7.110853 -12.388615 0
M  V30 45 H 18.354165 6.595676 -17.707503 0
M  V30 46 H 5.380494 3.590097 -11.782403 0
M  V30 47 H 6.174800 3.221930 -10.263114 0
M  V30 48 H 5.133142 4.623031 -10.385536 0
M  V30 49 H 7.791390 5.632761 -7.954762 0
M  V30 50 H 7.461976 3.990235 -8.648156 0
M  V30 51 H 6.683360 2.793943 -18.296212 0
M  V30 52 H 7.265693 1.198543 -17.844458 0
M  V30 53 H 5.873835 1.884878 -17.036593 0
M  V30 54 H 7.783487 4.237133 -11.829680 0
M  V30 55 H 9.532978 4.312198 -10.231325 0
M  V30 56 H 6.033984 6.000361 -14.441082 0
M  V30 57 H 7.639794 6.510505 -14.082808 0
M  V30 58 H 15.432147 9.569782 -18.789355 0
M  V30 59 H 11.248851 5.436190 -15.726668 0
M  V30 60 H 11.852562 4.015525 -16.551219 0
M  V30 61 H 8.435220 4.174209 -13.960978 0
M  V30 62 H 6.785984 3.594700 -13.856344 0
M  V30 63 H 8.676415 5.990134 -15.905431 0
M  V30 64 H 5.375052 7.028740 -10.969304 0
M  V30 65 H 5.279155 7.611028 -12.721882 0
M  V30 66 H 6.552464 6.548450 -17.229090 0
M  V30 67 H 7.970752 6.697915 -18.254884 0
M  V30 68 H 6.950297 5.276264 -18.376794 0
M  V30 69 H 13.610006 8.044996 -18.070737 0
M  V30 70 H 10.729133 4.643221 -18.649717 0
M  V30 71 H 10.209668 6.155412 -17.956505 0
M  V30 72 H 15.757837 3.073799 -16.089163 0
M  V30 73 H 6.336229 4.390052 -16.084770 0
M  V30 74 H 8.864266 7.243381 -9.935919 0
M  V30 END ATOM
M  V30 BEGIN BOND
M  V30 1 1 4 2
M  V30 2 1 8 9 CFG=1
M  V30 3 1 11 7
M  V30 4 1 11 8
M  V30 5 1 13 8
M  V30 6 1 13 9
M  V30 7 1 15 11
M  V30 8 1 15 14
M  V30 9 1 16 3
M  V30 10 1 16 10
M  V30 11 1 18 12
M  V30 12 1 19 1
M  V30 13 1 16 19 CFG=1
M  V30 14 1 21 14
M  V30 15 2 23 5
M  V30 16 1 23 17
M  V30 17 1 23 20
M  V30 18 2 24 15
M  V30 19 1 25 22
M  V30 20 1 26 3
M  V30 21 1 26 22
M  V30 22 2 27 17
M  V30 23 1 28 18
M  V30 24 1 28 26
M  V30 25 1 29 5
M  V30 26 2 29 6
M  V30 27 1 31 6
M  V30 28 2 31 30
M  V30 29 1 32 4
M  V30 30 1 32 8
M  V30 31 1 32 13
M  V30 32 2 33 3
M  V30 33 1 34 16
M  V30 34 1 34 21
M  V30 35 1 34 22
M  V30 36 1 35 12
M  V30 37 1 35 30
M  V30 38 1 36 27
M  V30 39 1 36 29
M  V30 40 2 36 35
M  V30 41 1 37 1
M  V30 42 1 38 1
M  V30 43 1 39 1
M  V30 44 1 40 2
M  V30 45 1 41 2
M  V30 46 1 42 2
M  V30 47 1 43 4
M  V30 48 1 44 4
M  V30 49 1 45 5
M  V30 50 1 46 7
M  V30 51 1 47 7
M  V30 52 1 48 7
M  V30 53 1 49 9
M  V30 54 1 50 9
M  V30 55 1 51 10
M  V30 56 1 52 10
M  V30 57 1 53 10
M  V30 58 1 11 54 CFG=3
M  V30 59 1 13 55 CFG=3
M  V30 60 1 56 14
M  V30 61 1 57 14
M  V30 62 1 58 17
M  V30 63 1 59 18
M  V30 64 1 60 18
M  V30 65 1 61 21
M  V30 66 1 62 21
M  V30 67 1 22 63 CFG=1
M  V30 68 1 64 24
M  V30 69 1 65 24
M  V30 70 1 66 25
M  V30 71 1 67 25
M  V30 72 1 68 25
M  V30 73 1 69 27
M  V30 74 1 70 28
M  V30 75 1 71 28
M  V30 76 1 72 31
M  V30 77 1 34 73 CFG=3
M  V30 78 1 32 74 CFG=1
M  V30 END BOND
M  V30 END CTAB
M  END
>  <i_epik_Tot_Q>  (1) 
1

>  <i_epik_Tot_abs_Q>  (1) 
1

>  <i_i_glide_confnum>  (1) 
135

>  <i_i_glide_lignum>  (1) 
113

>  <i_i_glide_posenum>  (1) 
143

>  <i_i_glide_rotatable_bonds>  (1) 
11

>  <i_lp_mmshare_version>  (1) 
72125

>  <i_m_source_file_index>  (1) 
71

>  <i_f3d_flags>  (1) 
0

>  <num_sample>  (1) 
100

>  <b_lp_Chiralities_Consistent>  (1) 
1

>  <r_epik_Charging_Adjusted_Penalty>  (1) 
0.028882640618341202

>  <r_epik_Ionization_Penalty>  (1) 
0.014531529159765241

>  <r_epik_Ionization_Penalty_Charging>  (1) 
0.014441320309170608

>  <r_epik_Ionization_Penalty_Neutral>  (1) 
9.020885059463329e-05

>  <r_epik_State_Penalty>  (1) 
0.014441320309170594

>  <r_glide_ring_energy>  (1) 
0

>  <r_i_docking_score>  (1) 
-4.8239880944729876

>  <r_i_glide_ecoul>  (1) 
-6.8933071133793096

>  <r_i_glide_eff_state_penalty>  (1) 
0.014441320309170594

>  <r_i_glide_einternal>  (1) 
5.0168883139626281

>  <r_i_glide_emodel>  (1) 
-52.135976141952568

>  <r_i_glide_emodel_strain>  (1) 
1.4751116521400007

>  <r_i_glide_energy>  (1) 
-41.054173697094804

>  <r_i_glide_erotb>  (1) 
0.62084064417162321

>  <r_i_glide_esite>  (1) 
-0.1000693343075052

>  <r_i_glide_evdw>  (1) 
-34.160866583715496

>  <r_i_glide_gscore>  (1) 
-4.8384294147821585

>  <r_i_glide_gscore_strain>  (1) 
0

>  <r_i_glide_hbond>  (1) 
-0.38535837751972052

>  <r_i_glide_ligand_efficiency>  (1) 
-0.13399966929091633

>  <r_i_glide_ligand_efficiency_ln>  (1) 
-1.0524638731170763

>  <r_i_glide_ligand_efficiency_sa>  (1) 
-0.44245715937454522

>  <r_i_glide_lipo>  (1) 
-1.5284139331700723

>  <r_i_glide_metal>  (1) 
-0

>  <r_i_glide_rewards>  (1) 
-0.70338901776381202

>  <r_lp_Energy>  (1) 
33.740380000000002

>  <r_lp_tautomer_probability>  (1) 
1

>  <s_epik_cmdline>  (1) 
J2VwaWtfcHl0aG9uJywgJy1waHQnLCAnMS4wJywgJy1waCcsICc3LjQnLCAnLXRuJywgJzgnLCAnLW1hJywgJzUwMCcsICctaW1hZScsICc8aW5maWxlLm1hZT4nLCAnLW9tYWUnLCAnPG91dGZpbGUubWFlPic=

>  <s_epik_input>  (1) 
W2NIXTFjKENsKVtjSF1bY0hdYyhjMTIpYyhuW2NIXW4yKU9bQ0gyXVtDSDJdTihDKD1PKVtDQEBdMyhbQ0gzXSlPW0NIM10pW0NAQEhdKFtDSDNdKVtDQEBIXTNbQ0gyXVtDSDJdQyg9W0NIMl0pW0NASF0oW0NIM10pQzQ1W0NASF0oW0NIMl00KU41W0NIMl1bQ0gzXQ==

>  <s_glide_docking_method>  (1) 
confgen

>  <s_i_glide_gridfile>  (1) 
gpcr_drd2_6luq_protein_autoprepared_prepared

>  <s_lp_Force_Field>  (1) 
S-OPLS

>  <s_lp_Variant>  (1) 
DiffSBDD_70-1

>  <s_m_source_file>  (1) 
generated_generic_title2_ligand_DiffSBDD_2026-06-23_prepared.sdf

>  <GenAI_Model>  (1) 
DiffSBDD

>  <Protein>  (1) 
generic_title2

$$$$
DiffSBDD_35
     RDKit          3D

  0  0  0  0  0  0  0  0  0  0999 V3000
M  V30 BEGIN CTAB
M  V30 COUNTS 58 60 0 0 1
M  V30 BEGIN ATOM
M  V30 1 O 8.201391 1.265040 -16.888855 0
M  V30 2 N 11.913313 8.828381 -4.461989 0 CHG=1
M  V30 3 C 12.175326 6.748153 -2.656103 0
M  V30 4 C 10.853166 8.547448 -6.989370 0
M  V30 5 C 6.997805 5.058965 -15.598981 0
M  V30 6 C 7.686623 2.529317 -16.629398 0
M  V30 7 C 10.525876 6.166464 -6.517123 0
M  V30 8 C 5.910887 6.522464 -13.867430 0
M  V30 9 C 12.572686 9.048128 -3.306097 0
M  V30 10 Cl 5.493018 6.390348 -11.271584 0
M  V30 11 O 8.175412 3.031605 -15.424435 0
M  V30 12 C 9.608795 8.112364 -10.775922 0
M  V30 13 C 7.677194 5.337806 -12.581622 0
M  V30 14 C 11.498605 6.550460 -3.876646 0
M  V30 15 S 8.504968 5.419719 -10.961428 0
M  V30 16 C 6.576851 6.418368 -15.183157 0
M  V30 17 C 10.102281 7.940309 -8.201151 0 CFG=2
M  V30 18 C 10.145483 6.401892 -7.975470 0 CFG=2
M  V30 19 C 7.780541 4.234094 -14.874576 0
M  V30 20 C 12.060485 8.178973 -9.879054 0
M  V30 21 C 10.568698 8.458833 -9.589813 0 CFG=1
M  V30 22 N 10.680414 7.502360 -6.011134 0
M  V30 23 C 6.406024 6.079376 -12.706462 0
M  V30 24 O 9.375408 4.171934 -10.799879 0
M  V30 25 C 11.375400 7.630305 -4.785028 0
M  V30 26 O 10.623824 6.482809 -12.202436 0
M  V30 27 C 9.720919 6.719883 -11.401866 0
M  V30 28 C 7.782082 0.282476 -15.952316 0
M  V30 29 F 8.950336 5.852321 -8.152505 0
M  V30 30 C 8.266183 4.534186 -13.521778 0
M  V30 31 C 12.716536 8.013813 -2.368343 0
M  V30 32 H 12.273379 5.936898 -1.948538 0
M  V30 33 H 11.914939 8.701494 -7.171292 0
M  V30 34 H 10.403706 9.486121 -6.665248 0
M  V30 35 H 6.686835 4.765830 -16.588034 0
M  V30 36 H 6.597080 2.469092 -16.611965 0
M  V30 37 H 8.002625 3.176534 -17.448577 0
M  V30 38 H 11.449074 5.590279 -6.440382 0
M  V30 39 H 9.724003 5.661152 -5.984991 0
M  V30 40 H 4.975417 7.054963 -13.859656 0
M  V30 41 H 12.961057 10.036940 -3.164343 0
M  V30 42 H 9.785105 8.790222 -11.605753 0
M  V30 43 H 8.575469 8.306705 -10.507992 0
M  V30 44 H 11.069338 5.590227 -4.104529 0
M  V30 45 H 5.889612 6.803652 -15.937138 0
M  V30 46 H 7.438621 7.083592 -15.185037 0
M  V30 47 H 9.058583 8.239906 -8.079925 0
M  V30 48 H 10.839406 5.898373 -8.643883 0
M  V30 49 H 12.265830 7.119332 -9.992795 0
M  V30 50 H 12.387380 8.677975 -10.785025 0
M  V30 51 H 12.717761 8.552972 -9.097590 0
M  V30 52 H 10.510253 9.542877 -9.506855 0
M  V30 53 H 8.205474 -0.684895 -16.223353 0
M  V30 54 H 8.121837 0.521754 -14.943645 0
M  V30 55 H 6.696030 0.179682 -15.939186 0
M  V30 56 H 9.165829 4.018782 -13.215681 0
M  V30 57 H 13.238273 8.189579 -1.438480 0
M  V30 58 H 11.815359 9.600825 -5.120895 0
M  V30 END ATOM
M  V30 BEGIN BOND
M  V30 1 1 6 1
M  V30 2 2 9 2
M  V30 3 1 11 6
M  V30 4 1 14 3
M  V30 5 1 15 13
M  V30 6 1 16 5
M  V30 7 1 16 8
M  V30 8 1 17 4
M  V30 9 1 18 7
M  V30 10 1 18 17
M  V30 11 2 19 5
M  V30 12 1 19 11
M  V30 13 1 21 12
M  V30 14 1 21 17
M  V30 15 1 21 20
M  V30 16 1 22 4
M  V30 17 1 22 7
M  V30 18 2 23 8
M  V30 19 1 23 10
M  V30 20 1 23 13
M  V30 21 2 24 15
M  V30 22 1 25 2
M  V30 23 2 25 14
M  V30 24 1 25 22
M  V30 25 1 27 12
M  V30 26 1 15 27 CFG=3
M  V30 27 2 27 26
M  V30 28 1 28 1
M  V30 29 1 29 18
M  V30 30 2 30 13
M  V30 31 1 30 19
M  V30 32 2 31 3
M  V30 33 1 31 9
M  V30 34 1 32 3
M  V30 35 1 33 4
M  V30 36 1 34 4
M  V30 37 1 35 5
M  V30 38 1 36 6
M  V30 39 1 37 6
M  V30 40 1 38 7
M  V30 41 1 39 7
M  V30 42 1 40 8
M  V30 43 1 41 9
M  V30 44 1 42 12
M  V30 45 1 43 12
M  V30 46 1 44 14
M  V30 47 1 45 16
M  V30 48 1 46 16
M  V30 49 1 17 47 CFG=1
M  V30 50 1 18 48 CFG=3
M  V30 51 1 49 20
M  V30 52 1 50 20
M  V30 53 1 51 20
M  V30 54 1 21 52 CFG=1
M  V30 55 1 53 28
M  V30 56 1 54 28
M  V30 57 1 55 28
M  V30 58 1 56 30
M  V30 59 1 57 31
M  V30 60 1 58 2
M  V30 END BOND
M  V30 END CTAB
M  END
>  <i_epik_Tot_Q>  (1) 
1

>  <i_epik_Tot_abs_Q>  (1) 
1

>  <i_i_glide_confnum>  (1) 
195

>  <i_i_glide_lignum>  (1) 
60

>  <i_i_glide_posenum>  (1) 
368

>  <i_i_glide_rotatable_bonds>  (1) 
9

>  <i_lp_mmshare_version>  (1) 
72125

>  <i_m_source_file_index>  (1) 
36

>  <i_f3d_flags>  (1) 
0

>  <num_sample>  (1) 
100

>  <b_lp_Chiralities_Consistent>  (1) 
1

>  <r_epik_Charging_Adjusted_Penalty>  (1) 
2.209854292761551

>  <r_epik_Ionization_Penalty>  (1) 
1.1049271463807997

>  <r_epik_Ionization_Penalty_Charging>  (1) 
1.1049271463807746

>  <r_epik_Ionization_Penalty_Neutral>  (1) 
2.4996070932980704e-14

>  <r_epik_State_Penalty>  (1) 
1.1049271463807766

>  <r_glide_ring_energy>  (1) 
0

>  <r_i_docking_score>  (1) 
-4.8204771515604641

>  <r_i_glide_ecoul>  (1) 
-2.1984858872736033

>  <r_i_glide_eff_state_penalty>  (1) 
1.1049271463807766

>  <r_i_glide_einternal>  (1) 
6.3749756192329698

>  <r_i_glide_emodel>  (1) 
-56.903193927153197

>  <r_i_glide_emodel_strain>  (1) 
0.022414373429924694

>  <r_i_glide_energy>  (1) 
-43.47791572936589

>  <r_i_glide_erotb>  (1) 
0.7316535107535509

>  <r_i_glide_esite>  (1) 
-0.15610776314609251

>  <r_i_glide_evdw>  (1) 
-41.279429842092284

>  <r_i_glide_gscore>  (1) 
-5.9254042979412409

>  <r_i_glide_gscore_strain>  (1) 
0

>  <r_i_glide_hbond>  (1) 
0

>  <r_i_glide_ligand_efficiency>  (1) 
-0.15549926295356337

>  <r_i_glide_ligand_efficiency_ln>  (1) 
-1.087165327559892

>  <r_i_glide_ligand_efficiency_sa>  (1) 
-0.48848237610344569

>  <r_i_glide_lipo>  (1) 
-2.6825022592901111

>  <r_i_glide_metal>  (1) 
-0

>  <r_i_glide_rewards>  (1) 
-1.4247034110629326

>  <r_lp_Energy>  (1) 
47.315815999999998

>  <r_lp_tautomer_probability>  (1) 
0.99999385203779767

>  <s_epik_Chemistry_Notes>  (1) 
This compound contains an acetal/aminal-like group ( X-CH(R)-Y where X, Y are N, S, or O) that may be acid/base labile, releasing an aldehyde.

>  <s_epik_cmdline>  (1) 
J2VwaWtfcHl0aG9uJywgJy1waHQnLCAnMS4wJywgJy1waCcsICc3LjQnLCAnLXRuJywgJzgnLCAnLW1hJywgJzUwMCcsICctaW1hZScsICc8aW5maWxlLm1hZT4nLCAnLW9tYWUnLCAnPG91dGZpbGUubWFlPic=

>  <s_epik_input>  (1) 
Q2xDMT1bQ0hdW0NIMl1bQ0hdPUMoT1tDSDJdT1tDSDNdKVtDSF09QzFbU0BAXSg9TylDKD1PKVtDSDJdW0NASF0oW0NIM10pW0NAQEhdMltDSDJdTihbQ0gyXVtDQEhdMkYpYzNuW2NIXVtjSF1bY0hdW2NIXTM=

>  <s_glide_docking_method>  (1) 
confgen

>  <s_i_glide_gridfile>  (1) 
gpcr_drd2_6luq_protein_autoprepared_prepared

>  <s_lp_Force_Field>  (1) 
S-OPLS

>  <s_lp_Variant>  (1) 
DiffSBDD_35-2

>  <s_m_source_file>  (1) 
generated_generic_title2_ligand_DiffSBDD_2026-06-23_prepared.sdf

>  <GenAI_Model>  (1) 
DiffSBDD

>  <Protein>  (1) 
generic_title2

$$$$
DiffSBDD_63
     RDKit          3D

  0  0  0  0  0  0  0  0  0  0999 V3000
M  V30 BEGIN CTAB
M  V30 COUNTS 47 48 0 0 1
M  V30 BEGIN ATOM
M  V30 1 C 8.497915 4.805485 -18.048396 0
M  V30 2 C 7.267187 5.503288 -15.606460 0
M  V30 3 C 11.492968 8.176497 -6.850540 0
M  V30 4 C 11.273389 6.876495 -6.513827 0
M  V30 5 C 6.578575 5.686051 -16.825181 0
M  V30 6 C 9.672028 7.012180 -11.134790 0
M  V30 7 C 12.039071 9.451118 -3.381037 0
M  V30 8 F 9.087118 4.470734 -19.220557 0
M  V30 9 C 7.718484 6.583652 -12.485669 0
M  V30 10 C 11.348651 7.810724 -9.353845 0
M  V30 11 C 11.728732 9.187254 -5.795163 0
M  V30 12 O 11.881633 10.390387 -5.997708 0
M  V30 13 N 7.313008 6.954159 -13.621737 0
M  V30 14 C 6.785150 5.187865 -10.558585 0
M  V30 15 S 12.218678 8.328134 -1.985278 0
M  V30 16 C 7.193951 5.336770 -18.043139 0
M  V30 17 F 9.252346 4.791569 -14.454251 0
M  V30 18 C 9.189558 4.622258 -16.836307 0
M  V30 19 S 6.418333 4.442069 -13.182467 0
M  V30 20 C 7.469710 5.197583 -11.933897 0 CFG=1
M  V30 21 O 8.398976 7.412831 -11.629805 0
M  V30 22 C 9.890882 7.789700 -9.827785 0
M  V30 23 N 11.513332 8.636079 -8.162917 0
M  V30 24 N 11.775297 8.654723 -4.562954 0
M  V30 25 C 6.594880 5.886931 -14.289413 0 CFG=2
M  V30 26 C 8.579526 4.968990 -15.615770 0
M  V30 27 H 5.578243 6.094108 -16.825335 0
M  V30 28 H 9.774976 5.946958 -10.933856 0
M  V30 29 H 10.428173 7.278846 -11.874543 0
M  V30 30 H 12.977335 9.989784 -3.502815 0
M  V30 31 H 11.234922 10.164249 -3.194048 0
M  V30 32 H 11.726702 6.801559 -9.202997 0
M  V30 33 H 11.972887 8.245993 -10.135169 0
M  V30 34 H 7.437199 5.590098 -9.783497 0
M  V30 35 H 6.521432 4.173500 -10.259469 0
M  V30 36 H 5.868625 5.779770 -10.561541 0
M  V30 37 H 12.603375 9.270408 -1.117338 0
M  V30 38 H 6.665274 5.476692 -18.974468 0
M  V30 39 H 10.189968 4.215498 -16.842161 0
M  V30 40 H 8.394995 4.623478 -11.912871 0
M  V30 41 H 9.257411 7.365733 -9.047645 0
M  V30 42 H 9.548623 8.814632 -9.966638 0
M  V30 43 H 11.644988 7.662002 -4.446924 0
M  V30 44 H 5.583813 6.235617 -14.503979 0
M  V30 45 H 11.099426 6.130296 -7.273188 0
M  V30 46 H 11.262396 6.543006 -5.488457 0
M  V30 47 H 11.685675 9.619606 -8.318623 0
M  V30 END ATOM
M  V30 BEGIN BOND
M  V30 1 2 4 3
M  V30 2 1 5 2
M  V30 3 1 8 1
M  V30 4 1 11 3
M  V30 5 2 12 11
M  V30 6 2 13 9
M  V30 7 1 15 7
M  V30 8 1 16 1
M  V30 9 2 16 5
M  V30 10 2 18 1
M  V30 11 1 20 9
M  V30 12 1 20 14
M  V30 13 1 20 19
M  V30 14 1 21 6
M  V30 15 1 21 9
M  V30 16 1 22 6
M  V30 17 1 22 10
M  V30 18 1 23 3
M  V30 19 1 23 10
M  V30 20 1 24 7
M  V30 21 1 24 11
M  V30 22 1 25 2
M  V30 23 1 25 13
M  V30 24 1 25 19
M  V30 25 2 26 2
M  V30 26 1 26 17
M  V30 27 1 26 18
M  V30 28 1 27 5
M  V30 29 1 28 6
M  V30 30 1 29 6
M  V30 31 1 30 7
M  V30 32 1 31 7
M  V30 33 1 32 10
M  V30 34 1 33 10
M  V30 35 1 34 14
M  V30 36 1 35 14
M  V30 37 1 36 14
M  V30 38 1 37 15
M  V30 39 1 38 16
M  V30 40 1 39 18
M  V30 41 1 20 40 CFG=1
M  V30 42 1 41 22
M  V30 43 1 42 22
M  V30 44 1 43 24
M  V30 45 1 25 44 CFG=3
M  V30 46 1 45 4
M  V30 47 1 46 4
M  V30 48 1 47 23
M  V30 END BOND
M  V30 END CTAB
M  END
>  <i_epik_Tot_Q>  (1) 
0

>  <i_epik_Tot_abs_Q>  (1) 
0

>  <i_i_glide_confnum>  (1) 
122

>  <i_i_glide_lignum>  (1) 
101

>  <i_i_glide_posenum>  (1) 
141

>  <i_i_glide_rotatable_bonds>  (1) 
11

>  <i_lp_mmshare_version>  (1) 
72125

>  <i_m_source_file_index>  (1) 
64

>  <i_f3d_flags>  (1) 
0

>  <num_sample>  (1) 
100

>  <b_lp_Chiralities_Consistent>  (1) 
1

>  <r_epik_Charging_Adjusted_Penalty>  (1) 
0.013849271164821807

>  <r_epik_Ionization_Penalty>  (1) 
0.12391676861929035

>  <r_epik_Ionization_Penalty_Charging>  (1) 
0.013849271164821807

>  <r_epik_Ionization_Penalty_Neutral>  (1) 
0.11006749745446855

>  <r_epik_State_Penalty>  (1) 
-0

>  <r_glide_ring_energy>  (1) 
0

>  <r_i_docking_score>  (1) 
-4.8194801601103618

>  <r_i_glide_ecoul>  (1) 
-0.59362237835576737

>  <r_i_glide_eff_state_penalty>  (1) 
-0

>  <r_i_glide_einternal>  (1) 
3.4714197105495623

>  <r_i_glide_emodel>  (1) 
-55.887249362939528

>  <r_i_glide_emodel_strain>  (1) 
0.43461127517252507

>  <r_i_glide_energy>  (1) 
-44.729910632733137

>  <r_i_glide_erotb>  (1) 
1.2167697096945405

>  <r_i_glide_esite>  (1) 
-0.050899229163690773

>  <r_i_glide_evdw>  (1) 
-44.136288254377369

>  <r_i_glide_gscore>  (1) 
-4.8194801601103618

>  <r_i_glide_gscore_strain>  (1) 
0

>  <r_i_glide_hbond>  (1) 
-0.010395974884878607

>  <r_i_glide_ligand_efficiency>  (1) 
-0.18536462154270622

>  <r_i_glide_ligand_efficiency_ln>  (1) 
-1.1318391015976652

>  <r_i_glide_ligand_efficiency_sa>  (1) 
-0.54914196254208747

>  <r_i_glide_lipo>  (1) 
-1.8818890669777557

>  <r_i_glide_metal>  (1) 
-0

>  <r_i_glide_rewards>  (1) 
-1.7972078293063443

>  <r_lp_Energy>  (1) 
17.542904

>  <r_lp_tautomer_probability>  (1) 
1

>  <s_epik_Chemistry_Notes>  (1) 
This compound has an imine and may undergo hydrolysis. This compound contains an acetal/aminal-like group ( X-CH(R)-Y where X, Y are N, S, or O) that may be acid/base labile, releasing an aldehyde.

>  <s_epik_cmdline>  (1) 
J2VwaWtfcHl0aG9uJywgJy1waHQnLCAnMS4wJywgJy1waCcsICc3LjQnLCAnLXRuJywgJzgnLCAnLW1hJywgJzUwMCcsICctaW1hZScsICc8aW5maWxlLm1hZT4nLCAnLW9tYWUnLCAnPG91dGZpbGUubWFlPic=

>  <s_epik_input>  (1) 
RmMxW2NIXVtjSF1jKGMoRilbY0hdMSlbQ0BIXShTW0NAQEhdMltDSDNdKU49QzJPW0NIMl1bQ0gyXVtDSDJdW05IXUMoPVtDSDJdKUMoPU8pW05IXVtDSDJdW1NIXQ==

>  <s_glide_docking_method>  (1) 
confgen

>  <s_i_glide_gridfile>  (1) 
gpcr_drd2_6luq_protein_autoprepared_prepared

>  <s_lp_Force_Field>  (1) 
S-OPLS

>  <s_lp_Variant>  (1) 
DiffSBDD_63-2

>  <s_m_source_file>  (1) 
generated_generic_title2_ligand_DiffSBDD_2026-06-23_prepared.sdf

>  <GenAI_Model>  (1) 
DiffSBDD

>  <Protein>  (1) 
generic_title2

$$$$
DiffSBDD_68
     RDKit          3D

  0  0  0  0  0  0  0  0  0  0999 V3000
M  V30 BEGIN CTAB
M  V30 COUNTS 43 45 0 0 1
M  V30 BEGIN ATOM
M  V30 1 C 8.974406 6.931359 -12.385025 0
M  V30 2 C 10.975411 9.217960 -5.605231 0
M  V30 3 C 7.622764 7.531997 -12.792027 0
M  V30 4 C 9.823639 6.625783 -8.657232 0
M  V30 5 C 7.277936 4.642977 -11.587175 0
M  V30 6 N 11.375411 8.049191 -4.798577 0 CHG=1
M  V30 7 C 8.984622 6.433731 -10.955384 0
M  V30 8 C 11.815890 9.326801 -6.884893 0
M  V30 9 C 10.825248 6.757724 -5.256099 0
M  V30 10 F 5.558625 7.101814 -13.755834 0
M  V30 11 C 9.797964 7.079749 -10.000843 0
M  V30 12 C 6.617474 6.473861 -13.252810 0 CFG=2
M  V30 13 C 9.012852 5.527292 -8.285929 0
M  V30 14 C 6.153643 5.535585 -12.133003 0
M  V30 15 C 11.246935 6.390226 -6.682675 0
M  V30 16 N 10.644133 7.267156 -7.683409 0
M  V30 17 C 11.344782 8.481973 -8.089945 0
M  V30 18 C 8.175408 5.338102 -10.570966 0
M  V30 19 C 8.190036 4.895439 -9.235848 0
M  V30 20 H 9.737471 7.704640 -12.476416 0
M  V30 21 H 9.277746 6.131654 -13.061850 0
M  V30 22 H 11.144048 10.106371 -4.995103 0
M  V30 23 H 9.908762 9.190223 -5.832332 0
M  V30 24 H 7.213719 8.142971 -11.985034 0
M  V30 25 H 7.775409 8.210219 -13.630705 0
M  V30 26 H 7.882014 4.228178 -12.394937 0
M  V30 27 H 6.805735 3.789296 -11.103401 0
M  V30 28 H 12.382359 7.996108 -4.781995 0
M  V30 29 H 12.866870 9.133234 -6.671044 0
M  V30 30 H 11.775409 10.371990 -7.185029 0
M  V30 31 H 11.173314 5.989223 -4.566368 0
M  V30 32 H 9.740322 6.766860 -5.185031 0
M  V30 33 H 10.405859 7.914294 -10.306895 0
M  V30 34 H 7.032815 5.895343 -14.079075 0
M  V30 35 H 9.005067 5.182389 -7.265561 0
M  V30 36 H 5.683417 6.094192 -11.321731 0
M  V30 37 H 5.376578 4.890327 -12.544654 0
M  V30 38 H 11.055261 5.339268 -6.879880 0
M  V30 39 H 12.327301 6.460854 -6.785025 0
M  V30 40 H 12.179910 8.249071 -8.752373 0
M  V30 41 H 10.651847 9.114899 -8.644883 0
M  V30 42 H 7.561389 4.070287 -8.935342 0
M  V30 43 H 11.052808 8.194255 -3.853838 0
M  V30 END ATOM
M  V30 BEGIN BOND
M  V30 1 1 3 1
M  V30 2 1 6 2
M  V30 3 1 7 1
M  V30 4 1 8 2
M  V30 5 1 9 6
M  V30 6 2 11 4
M  V30 7 1 11 7
M  V30 8 1 12 3
M  V30 9 1 12 10
M  V30 10 1 13 4
M  V30 11 1 14 5
M  V30 12 1 14 12
M  V30 13 1 15 9
M  V30 14 1 16 4
M  V30 15 1 16 15
M  V30 16 1 17 8
M  V30 17 1 17 16
M  V30 18 1 18 5
M  V30 19 2 18 7
M  V30 20 2 19 13
M  V30 21 1 19 18
M  V30 22 1 20 1
M  V30 23 1 21 1
M  V30 24 1 22 2
M  V30 25 1 23 2
M  V30 26 1 24 3
M  V30 27 1 25 3
M  V30 28 1 26 5
M  V30 29 1 27 5
M  V30 30 1 28 6
M  V30 31 1 29 8
M  V30 32 1 30 8
M  V30 33 1 31 9
M  V30 34 1 32 9
M  V30 35 1 33 11
M  V30 36 1 12 34 CFG=3
M  V30 37 1 35 13
M  V30 38 1 36 14
M  V30 39 1 37 14
M  V30 40 1 38 15
M  V30 41 1 39 15
M  V30 42 1 40 17
M  V30 43 1 41 17
M  V30 44 1 42 19
M  V30 45 1 43 6
M  V30 END BOND
M  V30 END CTAB
M  END
>  <i_epik_Tot_Q>  (1) 
1

>  <i_epik_Tot_abs_Q>  (1) 
1

>  <i_i_glide_confnum>  (1) 
2

>  <i_i_glide_lignum>  (1) 
111

>  <i_i_glide_posenum>  (1) 
343

>  <i_i_glide_rotatable_bonds>  (1) 
1

>  <i_lp_mmshare_version>  (1) 
72125

>  <i_m_source_file_index>  (1) 
69

>  <i_f3d_flags>  (1) 
0

>  <num_sample>  (1) 
100

>  <b_lp_Chiralities_Consistent>  (1) 
1

>  <r_epik_Charging_Adjusted_Penalty>  (1) 
0.015837352336264428

>  <r_epik_Ionization_Penalty>  (1) 
0.015894229435383624

>  <r_epik_Ionization_Penalty_Charging>  (1) 
0.015837352336264428

>  <r_epik_Ionization_Penalty_Neutral>  (1) 
5.6877099119197507e-05

>  <r_epik_State_Penalty>  (1) 
-0

>  <r_glide_ring_energy>  (1) 
0.98298749321962287

>  <r_i_docking_score>  (1) 
-4.8155798272399934

>  <r_i_glide_ecoul>  (1) 
2.0687359746035767

>  <r_i_glide_eff_state_penalty>  (1) 
-0

>  <r_i_glide_einternal>  (1) 
3.6443587359123777

>  <r_i_glide_emodel>  (1) 
-34.231302395207528

>  <r_i_glide_emodel_strain>  (1) 
0.24676834397347136

>  <r_i_glide_energy>  (1) 
-25.847775220263486

>  <r_i_glide_erotb>  (1) 
0.25598708870304271

>  <r_i_glide_esite>  (1) 
0

>  <r_i_glide_evdw>  (1) 
-27.916511194867063

>  <r_i_glide_gscore>  (1) 
-4.8155798272399934

>  <r_i_glide_gscore_strain>  (1) 
0

>  <r_i_glide_hbond>  (1) 
0

>  <r_i_glide_ligand_efficiency>  (1) 
-0.25345156985473649

>  <r_i_glide_ligand_efficiency_ln>  (1) 
-1.2208529153764847

>  <r_i_glide_ligand_efficiency_sa>  (1) 
-0.67631058687154422

>  <r_i_glide_lipo>  (1) 
-1.369263741269191

>  <r_i_glide_metal>  (1) 
-0

>  <r_i_glide_rewards>  (1) 
-2.6167880111210291

>  <r_lp_Energy>  (1) 
46.335602999999999

>  <r_lp_tautomer_probability>  (1) 
1

>  <s_epik_cmdline>  (1) 
J2VwaWtfcHl0aG9uJywgJy1waHQnLCAnMS4wJywgJy1waCcsICc3LjQnLCAnLXRuJywgJzgnLCAnLW1hJywgJzUwMCcsICctaW1hZScsICc8aW5maWxlLm1hZT4nLCAnLW9tYWUnLCAnPG91dGZpbGUubWFlPic=

>  <s_epik_input>  (1) 
W0NIMl0xW0NIMl1bQ0BIXShGKVtDSDJdW0NIMl1jKGMxMilbY0hdW2NIXWMoW2NIXTIpTjNbQ0gyXVtDSDJdW05IXVtDSDJdW0NIMl1bQ0gyXTM=

>  <s_glide_docking_method>  (1) 
confgen

>  <s_i_glide_gridfile>  (1) 
gpcr_drd2_6luq_protein_autoprepared_prepared

>  <s_lp_Force_Field>  (1) 
S-OPLS

>  <s_lp_Variant>  (1) 
DiffSBDD_68-1

>  <s_m_source_file>  (1) 
generated_generic_title2_ligand_DiffSBDD_2026-06-23_prepared.sdf

>  <GenAI_Model>  (1) 
DiffSBDD

>  <Protein>  (1) 
generic_title2

$$$$
DiffSBDD_71
     RDKit          3D

  0  0  0  0  0  0  0  0  0  0999 V3000
M  V30 BEGIN CTAB
M  V30 COUNTS 55 57 0 0 1
M  V30 BEGIN ATOM
M  V30 1 C 7.237117 0.313858 -15.463267 0 CFG=2
M  V30 2 O 8.975438 -1.609682 -16.785052 0
M  V30 3 C 9.323340 5.375807 -18.742384 0 CFG=1
M  V30 4 C 9.881904 2.664831 -17.614812 0
M  V30 5 C 8.063689 -0.801732 -17.491967 0
M  V30 6 C 6.344868 4.313576 -11.548928 0
M  V30 7 C 8.172984 3.211769 -19.472528 0
M  V30 8 N 7.972875 0.462961 -16.757133 0
M  V30 9 C 6.812910 6.248156 -14.060911 0
M  V30 10 O 7.793256 5.990163 -10.785046 0
M  V30 11 O 10.641974 5.868376 -18.690506 0
M  V30 12 C 7.540706 1.566334 -17.629914 0
M  V30 13 C 5.723252 0.053398 -15.637605 0
M  V30 14 C 9.608490 3.982012 -16.851443 0 CFG=2
M  V30 15 C 6.713177 6.625272 -12.782284 0
M  V30 16 C 6.376118 3.438754 -12.561938 0
M  V30 17 C 6.658146 5.757134 -11.584713 0 CFG=1
M  V30 18 C 9.215328 4.287616 -19.847553 0
M  V30 19 O 8.796920 4.912498 -17.535950 0
M  V30 20 O 12.743414 5.570721 -17.784475 0
M  V30 21 C 7.471225 1.444518 -14.440832 0
M  V30 22 C 8.702314 2.144185 -18.478230 0 CFG=2
M  V30 23 C 11.523249 5.439663 -17.719751 0
M  V30 24 C 6.877297 4.888195 -14.603313 0
M  V30 25 C 6.702112 3.683717 -13.983356 0
M  V30 26 O 6.804480 2.576149 -14.798252 0
M  V30 27 C 10.851063 4.791451 -16.499104 0
M  V30 28 O 8.178163 1.303855 -13.443809 0
M  V30 29 H 7.633556 -0.575624 -14.973983 0
M  V30 30 H 8.486320 -2.179133 -16.194837 0
M  V30 31 H 8.692639 6.222051 -19.017122 0
M  V30 32 H 10.186491 1.902450 -16.898545 0
M  V30 33 H 10.760516 2.772682 -18.248803 0
M  V30 34 H 8.477941 -0.658175 -18.488586 0
M  V30 35 H 7.103377 -1.300805 -17.616945 0
M  V30 36 H 6.082127 3.936411 -10.570295 0
M  V30 37 H 7.844680 2.701830 -20.378861 0
M  V30 38 H 7.276281 3.697737 -19.084925 0
M  V30 39 H 6.862509 7.047474 -14.785853 0
M  V30 40 H 7.542493 6.682097 -10.157994 0
M  V30 41 H 6.727720 1.224574 -18.272986 0
M  V30 42 H 7.122895 2.393846 -17.066414 0
M  V30 43 H 5.205291 0.077451 -14.677245 0
M  V30 44 H 5.249389 0.790150 -16.284437 0
M  V30 45 H 5.530124 -0.932151 -16.059808 0
M  V30 46 H 9.081684 3.727380 -15.935191 0
M  V30 47 H 6.684786 7.684037 -12.571547 0
M  V30 48 H 6.133594 2.419845 -12.301780 0
M  V30 49 H 5.828551 6.185879 -11.020776 0
M  V30 50 H 10.188681 3.844232 -20.056318 0
M  V30 51 H 8.920955 4.791005 -20.768760 0
M  V30 52 H 9.116550 1.343186 -19.089272 0
M  V30 53 H 7.077227 4.831129 -15.662476 0
M  V30 54 H 11.576562 4.160579 -15.985112 0
M  V30 55 H 10.584742 5.585416 -15.801195 0
M  V30 END ATOM
M  V30 BEGIN BOND
M  V30 1 1 5 2
M  V30 2 1 8 1
M  V30 3 1 8 5
M  V30 4 1 11 3
M  V30 5 1 12 8
M  V30 6 1 13 1
M  V30 7 1 14 4
M  V30 8 2 15 9
M  V30 9 2 16 6
M  V30 10 1 17 6
M  V30 11 1 17 10
M  V30 12 1 17 15
M  V30 13 1 18 3
M  V30 14 1 18 7
M  V30 15 1 19 3
M  V30 16 1 19 14
M  V30 17 1 21 1
M  V30 18 1 22 4
M  V30 19 1 22 7
M  V30 20 1 22 12
M  V30 21 1 23 11
M  V30 22 2 23 20
M  V30 23 1 24 9
M  V30 24 1 25 16
M  V30 25 2 25 24
M  V30 26 1 26 21
M  V30 27 1 26 25
M  V30 28 1 27 14
M  V30 29 1 27 23
M  V30 30 2 28 21
M  V30 31 1 1 29 CFG=1
M  V30 32 1 30 2
M  V30 33 1 3 31 CFG=3
M  V30 34 1 32 4
M  V30 35 1 33 4
M  V30 36 1 34 5
M  V30 37 1 35 5
M  V30 38 1 36 6
M  V30 39 1 37 7
M  V30 40 1 38 7
M  V30 41 1 39 9
M  V30 42 1 40 10
M  V30 43 1 41 12
M  V30 44 1 42 12
M  V30 45 1 43 13
M  V30 46 1 44 13
M  V30 47 1 45 13
M  V30 48 1 14 46 CFG=1
M  V30 49 1 47 15
M  V30 50 1 48 16
M  V30 51 1 17 49 CFG=1
M  V30 52 1 50 18
M  V30 53 1 51 18
M  V30 54 1 22 52 CFG=3
M  V30 55 1 53 24
M  V30 56 1 54 27
M  V30 57 1 55 27
M  V30 END BOND
M  V30 END CTAB
M  END
>  <i_epik_Tot_Q>  (1) 
0

>  <i_epik_Tot_abs_Q>  (1) 
0

>  <i_i_glide_confnum>  (1) 
445

>  <i_i_glide_lignum>  (1) 
116

>  <i_i_glide_posenum>  (1) 
333

>  <i_i_glide_rotatable_bonds>  (1) 
9

>  <i_lp_mmshare_version>  (1) 
72125

>  <i_m_source_file_index>  (1) 
72

>  <i_f3d_flags>  (1) 
0

>  <num_sample>  (1) 
100

>  <b_lp_Chiralities_Consistent>  (1) 
1

>  <r_epik_Charging_Adjusted_Penalty>  (1) 
0

>  <r_epik_Ionization_Penalty>  (1) 
0.0080147773199130048

>  <r_epik_Ionization_Penalty_Charging>  (1) 
0

>  <r_epik_Ionization_Penalty_Neutral>  (1) 
0.0080147773199130048

>  <r_epik_State_Penalty>  (1) 
-0

>  <r_glide_ring_energy>  (1) 
0.62074138562282444

>  <r_i_docking_score>  (1) 
-4.814201546216399

>  <r_i_glide_ecoul>  (1) 
-10.279594199787478

>  <r_i_glide_eff_state_penalty>  (1) 
-0

>  <r_i_glide_einternal>  (1) 
6.246220762397269

>  <r_i_glide_emodel>  (1) 
-42.531168014285207

>  <r_i_glide_emodel_strain>  (1) 
0.071111965704844238

>  <r_i_glide_energy>  (1) 
-35.92386083787585

>  <r_i_glide_erotb>  (1) 
0.75718691864975285

>  <r_i_glide_esite>  (1) 
-0.017493648983269352

>  <r_i_glide_evdw>  (1) 
-25.644266638088368

>  <r_i_glide_gscore>  (1) 
-4.814201546216399

>  <r_i_glide_gscore_strain>  (1) 
0

>  <r_i_glide_hbond>  (1) 
-0.44919799588118003

>  <r_i_glide_ligand_efficiency>  (1) 
-0.17193576950772854

>  <r_i_glide_ligand_efficiency_ln>  (1) 
-1.1112590679662309

>  <r_i_glide_ligand_efficiency_sa>  (1) 
-0.52209826155812433

>  <r_i_glide_lipo>  (1) 
-0.95170099092389326

>  <r_i_glide_metal>  (1) 
-0

>  <r_i_glide_rewards>  (1) 
-1.3288433672052693

>  <r_lp_Energy>  (1) 
43.182693999999998

>  <r_lp_tautomer_probability>  (1) 
1

>  <s_epik_Chemistry_Notes>  (1) 
This compound has an ester and may undergo hydrolysis at high or low pH. This compound contains an acetal/aminal-like group ( X-CH(R)-Y where X, Y are N, S, or O) that may be acid/base labile, releasing an aldehyde.

>  <s_epik_cmdline>  (1) 
J2VwaWtfcHl0aG9uJywgJy1waHQnLCAnMS4wJywgJy1waCcsICc3LjQnLCAnLXRuJywgJzgnLCAnLW1hJywgJzUwMCcsICctaW1hZScsICc8aW5maWxlLm1hZT4nLCAnLW9tYWUnLCAnPG91dGZpbGUubWFlPic=

>  <s_epik_input>  (1) 
W09IXVtDQEBIXTFbQ0hdPVtDSF1DKD1bQ0hdW0NIXT1bQ0hdMSlPQyg9TylbQ0BIXShbQ0gzXSlOKFtDSDJdW09IXSlbQ0gyXVtDQEBIXShbQ0gyXVtDSDJdMilbQ0gyXVtDQEhdKE8zKVtDSDJdQyg9TylPW0NAQEhdMjM=

>  <s_glide_docking_method>  (1) 
confgen

>  <s_i_glide_gridfile>  (1) 
gpcr_drd2_6luq_protein_autoprepared_prepared

>  <s_lp_Force_Field>  (1) 
S-OPLS

>  <s_lp_Variant>  (1) 
DiffSBDD_71-2

>  <s_m_source_file>  (1) 
generated_generic_title2_ligand_DiffSBDD_2026-06-23_prepared.sdf

>  <GenAI_Model>  (1) 
DiffSBDD

>  <Protein>  (1) 
generic_title2

$$$$
DiffSBDD_71
     RDKit          3D

  0  0  0  0  0  0  0  0  0  0999 V3000
M  V30 BEGIN CTAB
M  V30 COUNTS 55 57 0 0 1
M  V30 BEGIN ATOM
M  V30 1 C 7.191942 6.556715 -12.810852 0 CFG=1
M  V30 2 O 8.175414 3.065584 -13.196946 0
M  V30 3 C 6.635863 5.596611 -19.114731 0 CFG=1
M  V30 4 C 6.117441 6.898516 -16.447339 0
M  V30 5 C 7.402238 4.088024 -12.606183 0
M  V30 6 C 11.693672 8.132321 -9.500038 0
M  V30 7 C 8.004641 5.217920 -16.978677 0
M  V30 8 N 7.511627 5.258908 -13.485513 0
M  V30 9 C 9.981774 6.217960 -7.564290 0
M  V30 10 O 11.775415 9.190005 -7.400194 0
M  V30 11 O 6.296804 6.690931 -19.929330 0
M  V30 12 C 6.723533 5.078046 -14.718943 0
M  V30 13 C 5.908155 6.507077 -11.952942 0
M  V30 14 C 5.122075 6.200901 -17.394550 0 CFG=2
M  V30 15 C 11.002067 6.997201 -7.192850 0
M  V30 16 C 10.815792 7.590234 -10.357729 0
M  V30 17 C 11.788598 7.931448 -8.031314 0 CFG=1
M  V30 18 C 7.974512 5.876273 -18.385652 0
M  V30 19 O 5.661627 5.190230 -18.215224 0
M  V30 20 O 5.132875 8.673435 -20.107339 0
M  V30 21 C 8.336664 7.188715 -11.985026 0
M  V30 22 C 7.228559 5.990200 -15.871543 0 CFG=2
M  V30 23 C 5.320346 7.590316 -19.557504 0
M  V30 24 C 9.375438 6.074639 -8.888193 0
M  V30 25 C 9.709046 6.646822 -10.081019 0
M  V30 26 O 8.916181 6.280050 -11.150770 0
M  V30 27 C 4.434736 7.122119 -18.385107 0
M  V30 28 O 8.589170 8.392836 -12.037513 0
M  V30 29 H 6.987109 7.284795 -13.594392 0
M  V30 30 H 8.857901 2.815278 -12.591165 0
M  V30 31 H 6.767750 4.746264 -19.784644 0
M  V30 32 H 5.564253 7.373606 -15.636085 0
M  V30 33 H 6.575436 7.734888 -16.964813 0
M  V30 34 H 6.366013 3.764535 -12.493177 0
M  V30 35 H 7.796437 4.261591 -11.607061 0
M  V30 36 H 12.435006 8.806277 -9.907267 0
M  V30 37 H 9.041696 5.118787 -16.654451 0
M  V30 38 H 7.644043 4.192387 -17.068710 0
M  V30 39 H 9.543554 5.615932 -6.782975 0
M  V30 40 H 10.885869 9.509611 -7.417622 0
M  V30 41 H 6.758555 4.039404 -15.047318 0
M  V30 42 H 5.668872 5.259525 -14.511642 0
M  V30 43 H 5.645899 7.504419 -11.595674 0
M  V30 44 H 5.054416 6.137652 -12.517370 0
M  V30 45 H 6.024899 5.880997 -11.067260 0
M  V30 46 H 4.356067 5.725563 -16.784921 0
M  V30 47 H 11.304651 6.960668 -6.155886 0
M  V30 48 H 10.935882 7.881788 -11.387427 0
M  V30 49 H 12.815284 7.590222 -7.905356 0
M  V30 50 H 8.176484 6.946613 -18.384967 0
M  V30 51 H 8.762441 5.444690 -19.003284 0
M  V30 52 H 7.939882 6.674869 -15.420408 0
M  V30 53 H 8.526600 5.406834 -8.927063 0
M  V30 54 H 4.033829 7.990234 -17.864544 0
M  V30 55 H 3.580556 6.587038 -18.785025 0
M  V30 END ATOM
M  V30 BEGIN BOND
M  V30 1 1 5 2
M  V30 2 1 8 1
M  V30 3 1 8 5
M  V30 4 1 11 3
M  V30 5 1 12 8
M  V30 6 1 13 1
M  V30 7 1 14 4
M  V30 8 2 15 9
M  V30 9 2 16 6
M  V30 10 1 17 6
M  V30 11 1 17 10
M  V30 12 1 17 15
M  V30 13 1 18 3
M  V30 14 1 18 7
M  V30 15 1 19 3
M  V30 16 1 19 14
M  V30 17 1 21 1
M  V30 18 1 22 4
M  V30 19 1 22 7
M  V30 20 1 22 12
M  V30 21 1 23 11
M  V30 22 2 23 20
M  V30 23 1 24 9
M  V30 24 1 25 16
M  V30 25 2 25 24
M  V30 26 1 26 21
M  V30 27 1 26 25
M  V30 28 1 27 14
M  V30 29 1 27 23
M  V30 30 2 28 21
M  V30 31 1 1 29 CFG=3
M  V30 32 1 30 2
M  V30 33 1 3 31 CFG=3
M  V30 34 1 32 4
M  V30 35 1 33 4
M  V30 36 1 34 5
M  V30 37 1 35 5
M  V30 38 1 36 6
M  V30 39 1 37 7
M  V30 40 1 38 7
M  V30 41 1 39 9
M  V30 42 1 40 10
M  V30 43 1 41 12
M  V30 44 1 42 12
M  V30 45 1 43 13
M  V30 46 1 44 13
M  V30 47 1 45 13
M  V30 48 1 14 46 CFG=1
M  V30 49 1 47 15
M  V30 50 1 48 16
M  V30 51 1 17 49 CFG=3
M  V30 52 1 50 18
M  V30 53 1 51 18
M  V30 54 1 22 52 CFG=1
M  V30 55 1 53 24
M  V30 56 1 54 27
M  V30 57 1 55 27
M  V30 END BOND
M  V30 END CTAB
M  END
>  <i_epik_Tot_Q>  (1) 
0

>  <i_epik_Tot_abs_Q>  (1) 
0

>  <i_i_glide_confnum>  (1) 
544

>  <i_i_glide_lignum>  (1) 
115

>  <i_i_glide_posenum>  (1) 
121

>  <i_i_glide_rotatable_bonds>  (1) 
9

>  <i_lp_mmshare_version>  (1) 
72125

>  <i_m_source_file_index>  (1) 
72

>  <i_f3d_flags>  (1) 
0

>  <num_sample>  (1) 
100

>  <b_lp_Chiralities_Consistent>  (1) 
1

>  <r_epik_Charging_Adjusted_Penalty>  (1) 
0

>  <r_epik_Ionization_Penalty>  (1) 
0.0080147773199130048

>  <r_epik_Ionization_Penalty_Charging>  (1) 
0

>  <r_epik_Ionization_Penalty_Neutral>  (1) 
0.0080147773199130048

>  <r_epik_State_Penalty>  (1) 
-0

>  <r_glide_ring_energy>  (1) 
0.62074138562282111

>  <r_i_docking_score>  (1) 
-4.8128125943471147

>  <r_i_glide_ecoul>  (1) 
-1.9020971986693742

>  <r_i_glide_eff_state_penalty>  (1) 
-0

>  <r_i_glide_einternal>  (1) 
3.7659826859444081

>  <r_i_glide_emodel>  (1) 
-45.304836933989854

>  <r_i_glide_emodel_strain>  (1) 
0.3694199165119727

>  <r_i_glide_energy>  (1) 
-37.516537409181524

>  <r_i_glide_erotb>  (1) 
0.75718691864975285

>  <r_i_glide_esite>  (1) 
-0.083195396513894807

>  <r_i_glide_evdw>  (1) 
-35.61444021051215

>  <r_i_glide_gscore>  (1) 
-4.8128125943471147

>  <r_i_glide_gscore_strain>  (1) 
0

>  <r_i_glide_hbond>  (1) 
0

>  <r_i_glide_ligand_efficiency>  (1) 
-0.17188616408382554

>  <r_i_glide_ligand_efficiency_ln>  (1) 
-1.1109384570934011

>  <r_i_glide_ligand_efficiency_sa>  (1) 
-0.52194763027495528

>  <r_i_glide_lipo>  (1) 
-1.8530838549188109

>  <r_i_glide_metal>  (1) 
-0

>  <r_i_glide_rewards>  (1) 
-1.5676836712381479

>  <r_lp_Energy>  (1) 
45.945371999999999

>  <r_lp_tautomer_probability>  (1) 
1

>  <s_epik_Chemistry_Notes>  (1) 
This compound has an ester and may undergo hydrolysis at high or low pH. This compound contains an acetal/aminal-like group ( X-CH(R)-Y where X, Y are N, S, or O) that may be acid/base labile, releasing an aldehyde.

>  <s_epik_cmdline>  (1) 
J2VwaWtfcHl0aG9uJywgJy1waHQnLCAnMS4wJywgJy1waCcsICc3LjQnLCAnLXRuJywgJzgnLCAnLW1hJywgJzUwMCcsICctaW1hZScsICc8aW5maWxlLm1hZT4nLCAnLW9tYWUnLCAnPG91dGZpbGUubWFlPic=

>  <s_epik_input>  (1) 
W09IXVtDQEBIXTFbQ0hdPVtDSF1DKD1bQ0hdW0NIXT1bQ0hdMSlPQyg9TylbQ0BIXShbQ0gzXSlOKFtDSDJdW09IXSlbQ0gyXVtDQEBIXShbQ0gyXVtDSDJdMilbQ0gyXVtDQEhdKE8zKVtDSDJdQyg9TylPW0NAQEhdMjM=

>  <s_glide_docking_method>  (1) 
confgen

>  <s_i_glide_gridfile>  (1) 
gpcr_drd2_6luq_protein_autoprepared_prepared

>  <s_lp_Force_Field>  (1) 
S-OPLS

>  <s_lp_Variant>  (1) 
DiffSBDD_71-1

>  <s_m_source_file>  (1) 
generated_generic_title2_ligand_DiffSBDD_2026-06-23_prepared.sdf

>  <GenAI_Model>  (1) 
DiffSBDD

>  <Protein>  (1) 
generic_title2

$$$$
DiffSBDD_25
     RDKit          3D

  0  0  0  0  0  0  0  0  0  0999 V3000
M  V30 BEGIN CTAB
M  V30 COUNTS 64 67 0 0 1
M  V30 BEGIN ATOM
M  V30 1 C 8.575404 5.711747 -8.510261 0
M  V30 2 C 8.298291 0.119855 -17.592671 0
M  V30 3 C 6.786641 4.051229 -15.145075 0
M  V30 4 C 7.805840 4.728845 -17.333879 0
M  V30 5 N 7.060781 5.134141 -16.139682 0
M  V30 6 C 4.639493 -0.550241 -18.498382 0
M  V30 7 C 5.775417 6.924750 -17.092898 0
M  V30 8 C 5.850137 0.131901 -18.248216 0
M  V30 9 C 7.681549 3.763589 -13.877963 0 CFG=1
M  V30 10 C 8.579436 5.402013 -11.034208 0
M  V30 11 C 6.453611 7.116421 -14.785022 0
M  V30 12 O 9.396100 2.228324 -17.773828 0
M  V30 13 C 7.546045 7.399117 -12.528066 0 CFG=1
M  V30 14 C 6.824302 1.319155 -13.654441 0
M  V30 15 C 5.915551 1.590189 -18.385043 0
M  V30 16 C 6.994354 -0.598429 -17.871559 0
M  V30 17 C 6.972622 4.255270 -12.552959 0
M  V30 18 C 7.038445 2.319238 -18.208018 0
M  V30 19 C 9.375407 5.359043 -9.762898 0
M  V30 20 O 6.347029 1.153238 -12.511798 0
M  V30 21 C 7.408515 6.861413 -13.893028 0
M  V30 22 C 8.714680 6.554141 -11.999176 0 CFG=1
M  V30 23 C 4.575410 -1.950282 -18.370842 0
M  V30 24 C 8.323365 1.632855 -17.856461 0
M  V30 25 C 6.429690 6.396501 -16.043122 0
M  V30 26 C 8.035538 2.251050 -13.776347 0
M  V30 27 C 8.718892 8.036516 -11.793879 0
M  V30 28 C 5.718307 -2.675020 -17.992314 0
M  V30 29 C 6.927257 -2.000600 -17.744391 0
M  V30 30 C 7.083942 3.843854 -18.386024 0
M  V30 31 N 7.802466 4.390227 -11.315282 0 CHG=1
M  V30 32 O 6.403459 0.797237 -14.707959 0 CHG=-1
M  V30 33 H 9.042850 5.285680 -7.622416 0
M  V30 34 H 7.545616 5.355936 -8.548785 0
M  V30 35 H 8.575411 6.790240 -8.366799 0
M  V30 36 H 8.557356 -0.045783 -16.546598 0
M  V30 37 H 9.083074 -0.343964 -18.190114 0
M  V30 38 H 5.775409 4.219288 -14.785019 0
M  V30 39 H 6.706754 3.131048 -15.718282 0
M  V30 40 H 8.748845 4.308334 -16.997000 0
M  V30 41 H 8.104238 5.648549 -17.838410 0
M  V30 42 H 3.759172 0.002265 -18.789047 0
M  V30 43 H 5.280866 7.882537 -17.015565 0
M  V30 44 H 5.725808 6.408430 -18.038981 0
M  V30 45 H 8.651474 4.240221 -14.001924 0
M  V30 46 H 5.685768 7.843460 -14.563477 0
M  V30 47 H 6.606716 7.384369 -11.977387 0
M  V30 48 H 4.997788 2.092358 -18.654230 0
M  V30 49 H 6.377323 5.151964 -12.658571 0
M  V30 50 H 6.194302 3.549052 -12.274110 0
M  V30 51 H 9.775408 4.351424 -9.649477 0
M  V30 52 H 8.160045 6.161009 -14.183394 0
M  V30 53 H 3.646830 -2.467701 -18.561412 0
M  V30 54 H 8.575407 1.942940 -14.669877 0
M  V30 55 H 8.704096 2.070044 -12.933411 0
M  V30 56 H 9.406280 8.633074 -12.385039 0
M  V30 57 H 8.575398 8.401798 -10.783735 0
M  V30 58 H 5.667570 -3.749186 -17.889021 0
M  V30 59 H 7.804281 -2.558684 -17.449633 0
M  V30 60 H 6.070742 4.214033 -18.540475 0
M  V30 61 H 7.590539 4.002549 -19.338683 0
M  V30 62 H 9.547699 6.280238 -12.647245 0
M  V30 63 H 10.222337 6.034395 -9.850815 0
M  V30 64 H 7.751737 3.622524 -10.652600 0
M  V30 END ATOM
M  V30 BEGIN BOND
M  V30 1 1 5 3
M  V30 2 1 5 4
M  V30 3 2 8 6
M  V30 4 1 9 3
M  V30 5 1 15 8
M  V30 6 1 16 2
M  V30 7 1 16 8
M  V30 8 1 17 9
M  V30 9 2 18 15
M  V30 10 1 19 1
M  V30 11 1 19 10
M  V30 12 2 20 14
M  V30 13 2 21 11
M  V30 14 1 21 13
M  V30 15 1 22 10
M  V30 16 1 22 13
M  V30 17 1 23 6
M  V30 18 1 24 2
M  V30 19 2 24 12
M  V30 20 1 24 18
M  V30 21 1 25 5
M  V30 22 2 25 7
M  V30 23 1 25 11
M  V30 24 1 26 9
M  V30 25 1 26 14
M  V30 26 1 27 13
M  V30 27 1 27 22
M  V30 28 2 28 23
M  V30 29 2 29 16
M  V30 30 1 29 28
M  V30 31 1 30 4
M  V30 32 1 30 18
M  V30 33 2 31 10
M  V30 34 1 31 17
M  V30 35 1 32 14
M  V30 36 1 33 1
M  V30 37 1 34 1
M  V30 38 1 35 1
M  V30 39 1 36 2
M  V30 40 1 37 2
M  V30 41 1 38 3
M  V30 42 1 39 3
M  V30 43 1 40 4
M  V30 44 1 41 4
M  V30 45 1 42 6
M  V30 46 1 43 7
M  V30 47 1 44 7
M  V30 48 1 9 45 CFG=3
M  V30 49 1 46 11
M  V30 50 1 13 47 CFG=1
M  V30 51 1 48 15
M  V30 52 1 49 17
M  V30 53 1 50 17
M  V30 54 1 51 19
M  V30 55 1 52 21
M  V30 56 1 53 23
M  V30 57 1 54 26
M  V30 58 1 55 26
M  V30 59 1 56 27
M  V30 60 1 57 27
M  V30 61 1 58 28
M  V30 62 1 59 29
M  V30 63 1 60 30
M  V30 64 1 61 30
M  V30 65 1 22 62 CFG=3
M  V30 66 1 63 19
M  V30 67 1 64 31
M  V30 END BOND
M  V30 END CTAB
M  END
>  <i_epik_Tot_Q>  (1) 
0

>  <i_epik_Tot_abs_Q>  (1) 
2

>  <i_i_glide_confnum>  (1) 
84

>  <i_i_glide_lignum>  (1) 
44

>  <i_i_glide_posenum>  (1) 
78

>  <i_i_glide_rotatable_bonds>  (1) 
6

>  <i_lp_mmshare_version>  (1) 
72125

>  <i_m_source_file_index>  (1) 
26

>  <i_f3d_flags>  (1) 
0

>  <num_sample>  (1) 
100

>  <b_lp_Chiralities_Consistent>  (1) 
1

>  <r_epik_Charging_Adjusted_Penalty>  (1) 
0.12353365736142194

>  <r_epik_Ionization_Penalty>  (1) 
13.465358995569625

>  <r_epik_Ionization_Penalty_Charging>  (1) 
0.062700894571276394

>  <r_epik_Ionization_Penalty_Neutral>  (1) 
13.402658100998348

>  <r_epik_State_Penalty>  (1) 
0.060832762790145552

>  <r_glide_ring_energy>  (1) 
0

>  <r_i_docking_score>  (1) 
-4.7947765838326823

>  <r_i_glide_ecoul>  (1) 
-1.8060440117418077

>  <r_i_glide_eff_state_penalty>  (1) 
0.060832762790145552

>  <r_i_glide_einternal>  (1) 
4.2213153051800978

>  <r_i_glide_emodel>  (1) 
-41.631607308429288

>  <r_i_glide_emodel_strain>  (1) 
2.708077113985226

>  <r_i_glide_energy>  (1) 
-36.811046328911068

>  <r_i_glide_erotb>  (1) 
0.42539970400538585

>  <r_i_glide_esite>  (1) 
-0.024063888755033812

>  <r_i_glide_evdw>  (1) 
-35.005002317169257

>  <r_i_glide_gscore>  (1) 
-4.8556093466228276

>  <r_i_glide_gscore_strain>  (1) 
0

>  <r_i_glide_hbond>  (1) 
0

>  <r_i_glide_ligand_efficiency>  (1) 
-0.14983676824477132

>  <r_i_glide_ligand_efficiency_ln>  (1) 
-1.0736811777934894

>  <r_i_glide_ligand_efficiency_sa>  (1) 
-0.47570208707053069

>  <r_i_glide_lipo>  (1) 
-1.9858177032500919

>  <r_i_glide_metal>  (1) 
-0

>  <r_i_glide_rewards>  (1) 
-1.249970741003354

>  <r_lp_Energy>  (1) 
54.374595999999997

>  <s_epik_Chemistry_Notes>  (1) 
This compound has an imine and may undergo hydrolysis.

>  <s_epik_cmdline>  (1) 
J2VwaWtfcHl0aG9uJywgJy1waHQnLCAnMS4wJywgJy1waCcsICc3LjQnLCAnLXRuJywgJzgnLCAnLW1hJywgJzUwMCcsICctaW1hZScsICc8aW5maWxlLm1hZT4nLCAnLW9tYWUnLCAnPG91dGZpbGUubWFlPic=

>  <s_epik_input>  (1) 
W0NIM10vW0NIXT1DKFxbQ0BIXShbQ0BIXTEyKVtDSDJdMilbTkhdW0NIMl1bQ0BASF0oW0NIMl1DKD1PKVtPSF0pW0NIMl1OKEMoPVtDSDJdKS9bQ0hdPVtDSF0vMSlbQ0gyXVtDSDJdQyg9W0NIXTMpQyg9TylbQ0gyXWMoYzM0KVtjSF1bY0hdW2NIXVtjSF00

>  <s_glide_docking_method>  (1) 
confgen

>  <s_i_glide_gridfile>  (1) 
gpcr_drd2_6luq_protein_autoprepared_prepared

>  <s_lp_Force_Field>  (1) 
S-OPLS

>  <s_lp_Variant>  (1) 
DiffSBDD_25-2

>  <s_m_source_file>  (1) 
generated_generic_title2_ligand_DiffSBDD_2026-06-23_prepared.sdf

>  <GenAI_Model>  (1) 
DiffSBDD

>  <Protein>  (1) 
generic_title2

$$$$
DiffSBDD_78
     RDKit          3D

  0  0  0  0  0  0  0  0  0  0999 V3000
M  V30 BEGIN CTAB
M  V30 COUNTS 81 85 0 0 1
M  V30 BEGIN ATOM
M  V30 1 C 9.704335 8.336057 -7.865519 0 CFG=2
M  V30 2 C 11.204363 8.703182 -7.824742 0
M  V30 3 C 5.821871 4.397641 -13.786726 0 CFG=1
M  V30 4 C 7.216116 2.333741 -14.934481 0 CFG=2
M  V30 5 C 9.199863 7.918894 -6.486374 0
M  V30 6 N 7.529724 -0.009781 -15.800753 0 CHG=1
M  V30 7 C 7.111501 2.343366 -13.389181 0 CFG=1
M  V30 8 C 8.241439 4.642320 -13.316836 0 CFG=1
M  V30 9 N 9.375414 7.195921 -8.752780 0 CFG=2 CHG=1
M  V30 10 C 9.460680 5.965992 -7.939720 0
M  V30 11 N 9.625644 5.190227 -13.433718 0 CFG=1 CHG=1
M  V30 12 C 6.974812 6.042812 -15.265473 0
M  V30 13 C 8.180415 1.294005 -15.518473 0
M  V30 14 C 6.150169 -1.492987 -17.115396 0
M  V30 15 O 7.507804 3.673745 -15.379597 0
M  V30 16 C 10.175411 5.328352 -14.806651 0
M  V30 17 C 5.274709 -1.699365 -18.360838 0 CFG=1
M  V30 18 C 5.535482 4.227932 -12.294380 0
M  V30 19 C 7.172114 4.734335 -14.456379 0 CFG=2
M  V30 20 F 4.175413 -0.962006 -18.215291 0
M  V30 21 C 9.228532 6.390256 -6.486358 0
M  V30 22 C 6.783953 7.317596 -14.435215 0
M  V30 23 O 7.288101 0.336654 -18.161500 0
M  V30 24 C 8.286237 3.177088 -12.799022 0
M  V30 25 C 6.028240 -1.184381 -19.602743 0 CFG=1
M  V30 26 C 9.527276 6.095951 -11.005652 0
M  V30 27 C 6.530129 -0.000612 -17.042276 0 CFG=2
M  V30 28 C 10.094874 7.159944 -10.053075 0
M  V30 29 C 9.974022 6.302148 -12.480790 0
M  V30 30 C 4.813071 -3.157507 -18.506298 0
M  V30 31 C 6.544713 0.251610 -19.378262 0
M  V30 32 C 5.785935 3.025279 -13.159245 0 CFG=1
M  V30 33 F 7.067413 -1.974676 -19.878807 0
M  V30 34 H 9.132152 9.190225 -8.217816 0
M  V30 35 H 11.388655 9.484781 -7.086783 0
M  V30 36 H 11.822960 7.847143 -7.552963 0
M  V30 37 H 11.557338 9.090690 -8.780976 0
M  V30 38 H 4.975406 4.694793 -14.384909 0
M  V30 39 H 6.236678 2.111245 -15.351767 0
M  V30 40 H 8.175407 8.268163 -6.366073 0
M  V30 41 H 9.783541 8.342003 -5.668168 0
M  V30 42 H 8.254610 -0.689314 -15.986333 0
M  V30 43 H 7.079238 1.335542 -12.972772 0
M  V30 44 H 7.787858 5.275031 -12.575938 0
M  V30 45 H 8.728096 5.228630 -8.271738 0
M  V30 46 H 10.453267 5.521699 -8.034844 0
M  V30 47 H 6.084359 5.925238 -15.884683 0
M  V30 48 H 7.739463 6.185611 -16.016753 0
M  V30 49 H 8.644972 1.665270 -16.432960 0
M  V30 50 H 8.975402 1.127190 -14.802588 0
M  V30 51 H 7.052275 -2.104535 -17.185019 0
M  V30 52 H 5.607792 -1.780308 -16.212644 0
M  V30 53 H 9.634456 5.990226 -15.454722 0
M  V30 54 H 11.201010 5.693818 -14.785023 0
M  V30 55 H 10.185156 4.390192 -15.337002 0
M  V30 56 H 4.519059 4.390220 -11.985030 0
M  V30 57 H 6.255008 4.429933 -11.506227 0
M  V30 58 H 8.285201 5.990287 -6.112275 0
M  V30 59 H 10.025532 6.011023 -5.844843 0
M  V30 60 H 6.610201 8.169520 -15.093003 0
M  V30 61 H 7.656591 7.549634 -13.832195 0
M  V30 62 H 5.925909 7.235114 -13.767736 0
M  V30 63 H 8.274369 3.190232 -11.712589 0
M  V30 64 H 9.224777 2.694600 -13.059948 0
M  V30 65 H 5.383462 -1.215404 -20.482750 0
M  V30 66 H 8.445835 6.186607 -10.911423 0
M  V30 67 H 9.775409 5.092061 -10.660071 0
M  V30 68 H 5.673348 0.659841 -16.898620 0
M  V30 69 H 11.161688 6.993522 -9.901305 0
M  V30 70 H 9.988970 8.143613 -10.513738 0
M  V30 71 H 11.057596 6.424003 -12.505813 0
M  V30 72 H 9.556772 7.256667 -12.785023 0
M  V30 73 H 5.660213 -3.834073 -18.619226 0
M  V30 74 H 4.249961 -3.481050 -17.629872 0
M  V30 75 H 4.167568 -3.283043 -19.376379 0
M  V30 76 H 5.711454 0.956302 -19.344897 0
M  V30 77 H 7.182062 0.559830 -20.207424 0
M  V30 78 H 4.934833 2.412700 -13.429499 0
M  V30 79 H 8.380428 7.334791 -8.970046 0
M  V30 80 H 10.207666 4.439125 -13.081470 0
M  V30 81 H 7.039443 -0.323341 -14.974372 0
M  V30 END ATOM
M  V30 BEGIN BOND
M  V30 1 1 2 1
M  V30 2 1 5 1
M  V30 3 1 7 4
M  V30 4 1 9 1
M  V30 5 1 10 9
M  V30 6 1 11 8
M  V30 7 1 13 4
M  V30 8 1 13 6
M  V30 9 1 15 4
M  V30 10 1 16 11
M  V30 11 1 17 14
M  V30 12 1 18 3
M  V30 13 1 19 3
M  V30 14 1 19 8
M  V30 15 1 19 12 CFG=3
M  V30 16 1 19 15
M  V30 17 1 17 20 CFG=1
M  V30 18 1 21 5
M  V30 19 1 21 10
M  V30 20 1 22 12
M  V30 21 1 24 7
M  V30 22 1 24 8
M  V30 23 1 25 17
M  V30 24 1 27 6
M  V30 25 1 27 14
M  V30 26 1 27 23
M  V30 27 1 28 9
M  V30 28 1 28 26
M  V30 29 1 29 11
M  V30 30 1 29 26
M  V30 31 1 30 17
M  V30 32 1 31 23
M  V30 33 1 31 25
M  V30 34 1 32 3
M  V30 35 1 32 7
M  V30 36 1 32 18
M  V30 37 1 33 25
M  V30 38 1 1 34 CFG=3
M  V30 39 1 35 2
M  V30 40 1 36 2
M  V30 41 1 37 2
M  V30 42 1 3 38 CFG=3
M  V30 43 1 4 39 CFG=3
M  V30 44 1 40 5
M  V30 45 1 41 5
M  V30 46 1 42 6
M  V30 47 1 7 43 CFG=1
M  V30 48 1 8 44 CFG=1
M  V30 49 1 45 10
M  V30 50 1 46 10
M  V30 51 1 47 12
M  V30 52 1 48 12
M  V30 53 1 49 13
M  V30 54 1 50 13
M  V30 55 1 51 14
M  V30 56 1 52 14
M  V30 57 1 53 16
M  V30 58 1 54 16
M  V30 59 1 55 16
M  V30 60 1 56 18
M  V30 61 1 57 18
M  V30 62 1 58 21
M  V30 63 1 59 21
M  V30 64 1 60 22
M  V30 65 1 61 22
M  V30 66 1 62 22
M  V30 67 1 63 24
M  V30 68 1 64 24
M  V30 69 1 25 65 CFG=3
M  V30 70 1 66 26
M  V30 71 1 67 26
M  V30 72 1 27 68 CFG=1
M  V30 73 1 69 28
M  V30 74 1 70 28
M  V30 75 1 71 29
M  V30 76 1 72 29
M  V30 77 1 73 30
M  V30 78 1 74 30
M  V30 79 1 75 30
M  V30 80 1 76 31
M  V30 81 1 77 31
M  V30 82 1 32 78 CFG=3
M  V30 83 1 9 79 CFG=3
M  V30 84 1 11 80 CFG=1
M  V30 85 1 81 6
M  V30 END BOND
M  V30 END CTAB
M  END
>  <i_epik_Tot_Q>  (1) 
3

>  <i_epik_Tot_abs_Q>  (1) 
3

>  <i_i_glide_confnum>  (1) 
662

>  <i_i_glide_lignum>  (1) 
135

>  <i_i_glide_posenum>  (1) 
238

>  <i_i_glide_rotatable_bonds>  (1) 
9

>  <i_lp_mmshare_version>  (1) 
72125

>  <i_m_source_file_index>  (1) 
79

>  <i_f3d_flags>  (1) 
0

>  <num_sample>  (1) 
100

>  <b_lp_Chiralities_Consistent>  (1) 
1

>  <r_epik_Charging_Adjusted_Penalty>  (1) 
1.7942086838225126

>  <r_epik_Ionization_Penalty>  (1) 
0.94562311220168549

>  <r_epik_Ionization_Penalty_Charging>  (1) 
0.94562311220168382

>  <r_epik_Ionization_Penalty_Neutral>  (1) 
1.710257484888175e-15

>  <r_epik_State_Penalty>  (1) 
0.84858557162082893

>  <r_glide_ring_energy>  (1) 
0

>  <r_i_docking_score>  (1) 
-4.7881094874443626

>  <r_i_glide_ecoul>  (1) 
-10.722624315894786

>  <r_i_glide_eff_state_penalty>  (1) 
0.84858557162082893

>  <r_i_glide_einternal>  (1) 
3.5767814213791063

>  <r_i_glide_emodel>  (1) 
-47.883503089848368

>  <r_i_glide_emodel_strain>  (1) 
5.4287367126005108

>  <r_i_glide_energy>  (1) 
-37.666001890597521

>  <r_i_glide_erotb>  (1) 
0.72404097212868179

>  <r_i_glide_esite>  (1) 
-0.11270199855882368

>  <r_i_glide_evdw>  (1) 
-26.943377574702737

>  <r_i_glide_gscore>  (1) 
-5.6366950590651914

>  <r_i_glide_gscore_strain>  (1) 
0.35718417815012771

>  <r_i_glide_hbond>  (1) 
-0.20000000000000001

>  <r_i_glide_ligand_efficiency>  (1) 
-0.1450942268922534

>  <r_i_glide_ligand_efficiency_ln>  (1) 
-1.064850758503513

>  <r_i_glide_ligand_efficiency_sa>  (1) 
-0.46539471384110653

>  <r_i_glide_lipo>  (1) 
-2.055225345452889

>  <r_i_glide_metal>  (1) 
-0

>  <r_i_glide_rewards>  (1) 
-1.3944303392129338

>  <r_lp_Energy>  (1) 
79.635677999999999

>  <s_epik_Chemistry_Notes>  (1) 
This compound contains an acetal/aminal-like group ( X-CH(R)-Y where X, Y are N, S, or O) that may be acid/base labile, releasing an aldehyde.

>  <s_epik_cmdline>  (1) 
J2VwaWtfcHl0aG9uJywgJy1waHQnLCAnMS4wJywgJy1waCcsICc3LjQnLCAnLXRuJywgJzgnLCAnLW1hJywgJzUwMCcsICctaW1hZScsICc8aW5maWxlLm1hZT4nLCAnLW9tYWUnLCAnPG91dGZpbGUubWFlPic=

>  <s_epik_input>  (1) 
W0NIM11bQ0BASF0xW0NIMl1bQ0gyXVtDSDJdTjFbQ0gyXVtDSDJdW0NIMl1OKFtDSDNdKVtDQEBIXTJbQ0gyXVtDQEBIXShbQ0BASF0oW0NIMl0zKVtDQEBIXTNbQ0BAXTI0W0NIMl1bQ0gzXSlbQ0BASF0oTzQpW0NIMl1bTkhdW0NASF0oW0NIMl1bQ0BdNShGKVtDSDNdKU9bQ0gyXVtDQEhdNUY=

>  <s_glide_docking_method>  (1) 
confgen

>  <s_i_glide_gridfile>  (1) 
gpcr_drd2_6luq_protein_autoprepared_prepared

>  <s_lp_Force_Field>  (1) 
S-OPLS

>  <s_lp_Variant>  (1) 
DiffSBDD_78-7

>  <s_m_source_file>  (1) 
generated_generic_title2_ligand_DiffSBDD_2026-06-23_prepared.sdf

>  <GenAI_Model>  (1) 
DiffSBDD

>  <Protein>  (1) 
generic_title2

$$$$
DiffSBDD_44
     RDKit          3D

  0  0  0  0  0  0  0  0  0  0999 V3000
M  V30 BEGIN CTAB
M  V30 COUNTS 46 48 0 0 1
M  V30 BEGIN ATOM
M  V30 1 C 6.370740 4.382021 -12.422497 0 CFG=2
M  V30 2 C 8.484723 5.568625 -8.036046 0
M  V30 3 C 9.784777 7.051541 -6.385140 0
M  V30 4 C 6.489185 4.104871 -13.863474 0 CFG=1
M  V30 5 O 10.423357 6.390241 -9.184913 0
M  V30 6 C 11.775409 8.824457 -5.453286 0
M  V30 7 C 10.476073 6.794097 -5.185034 0
M  V30 8 C 8.894241 5.015362 -13.066398 0
M  V30 9 O 9.378398 8.589943 -8.230435 0
M  V30 10 O 8.175436 1.407862 -15.991997 0
M  V30 11 C 8.717067 6.095434 -6.799541 0
M  V30 12 C 10.092821 8.241649 -7.115609 0
M  V30 13 O 7.123361 1.814114 -13.531370 0
M  V30 14 C 7.652817 2.692578 -15.712260 0
M  V30 15 C 8.861109 5.202448 -10.537469 0
M  V30 16 N 6.918617 7.489262 -12.384953 0 CHG=1
M  V30 17 C 9.509421 5.710554 -11.835922 0
M  V30 18 O 5.218188 3.990406 -13.185026 0
M  V30 19 C 7.374859 5.189712 -13.235308 0 CFG=2
M  V30 20 C 7.087131 2.784325 -14.290497 0
M  V30 21 C 11.458327 7.675486 -4.722059 0
M  V30 22 C 9.351558 5.795089 -9.219760 0
M  V30 23 C 7.008899 6.629394 -13.579569 0
M  V30 24 C 11.109561 9.103331 -6.648835 0
M  V30 25 H 6.738811 3.623189 -11.734617 0
M  V30 26 H 7.633858 4.919795 -8.174049 0
M  V30 27 H 12.540909 9.496808 -5.094857 0
M  V30 28 H 10.240639 5.913122 -4.610652 0
M  V30 29 H 9.396249 5.352105 -13.974123 0
M  V30 30 H 9.130142 3.954481 -12.983154 0
M  V30 31 H 8.656580 8.004607 -8.435608 0
M  V30 32 H 8.451535 1.376515 -16.895286 0
M  V30 33 H 8.050183 5.794780 -6.005846 0
M  V30 34 H 8.435412 3.440535 -15.839527 0
M  V30 35 H 6.862737 2.914195 -16.428820 0
M  V30 36 H 8.976961 4.119890 -10.475629 0
M  V30 37 H 7.791128 5.400217 -10.562609 0
M  V30 38 H 6.699188 8.437499 -12.647269 0
M  V30 39 H 7.789346 7.487694 -11.871391 0
M  V30 40 H 10.575671 5.491732 -11.837397 0
M  V30 41 H 9.439688 6.794544 -11.908969 0
M  V30 42 H 11.977392 7.464894 -3.798410 0
M  V30 43 H 7.738483 7.043443 -14.276633 0
M  V30 44 H 6.042975 6.650622 -14.086644 0
M  V30 45 H 11.369756 9.990223 -7.198955 0
M  V30 46 H 6.200183 7.157618 -11.754636 0
M  V30 END ATOM
M  V30 BEGIN BOND
M  V30 1 1 4 1
M  V30 2 2 7 3
M  V30 3 2 11 2
M  V30 4 1 11 3
M  V30 5 1 12 3
M  V30 6 1 12 9
M  V30 7 1 14 10
M  V30 8 1 17 8
M  V30 9 1 17 15
M  V30 10 1 18 1
M  V30 11 1 18 4
M  V30 12 1 19 1
M  V30 13 1 19 4
M  V30 14 1 19 8 CFG=1
M  V30 15 1 4 20 CFG=1
M  V30 16 2 20 13
M  V30 17 1 20 14
M  V30 18 2 21 6
M  V30 19 1 21 7
M  V30 20 1 22 2
M  V30 21 2 22 5
M  V30 22 1 22 15
M  V30 23 1 23 16
M  V30 24 1 23 19
M  V30 25 1 24 6
M  V30 26 2 24 12
M  V30 27 1 1 25 CFG=1
M  V30 28 1 26 2
M  V30 29 1 27 6
M  V30 30 1 28 7
M  V30 31 1 29 8
M  V30 32 1 30 8
M  V30 33 1 31 9
M  V30 34 1 32 10
M  V30 35 1 33 11
M  V30 36 1 34 14
M  V30 37 1 35 14
M  V30 38 1 36 15
M  V30 39 1 37 15
M  V30 40 1 38 16
M  V30 41 1 39 16
M  V30 42 1 40 17
M  V30 43 1 41 17
M  V30 44 1 42 21
M  V30 45 1 43 23
M  V30 46 1 44 23
M  V30 47 1 45 24
M  V30 48 1 46 16
M  V30 END BOND
M  V30 END CTAB
M  END
>  <i_epik_Tot_Q>  (1) 
1

>  <i_epik_Tot_abs_Q>  (1) 
1

>  <i_i_glide_confnum>  (1) 
634

>  <i_i_glide_lignum>  (1) 
72

>  <i_i_glide_posenum>  (1) 
85

>  <i_i_glide_rotatable_bonds>  (1) 
11

>  <i_lp_mmshare_version>  (1) 
72125

>  <i_m_source_file_index>  (1) 
45

>  <i_f3d_flags>  (1) 
0

>  <num_sample>  (1) 
100

>  <b_lp_Chiralities_Consistent>  (1) 
1

>  <r_epik_Charging_Adjusted_Penalty>  (1) 
0.0039975134785533318

>  <r_epik_Ionization_Penalty>  (1) 
0.0083805373542956835

>  <r_epik_Ionization_Penalty_Charging>  (1) 
0.0039975134785533318

>  <r_epik_Ionization_Penalty_Neutral>  (1) 
0.0043830238757423508

>  <r_epik_State_Penalty>  (1) 
-0

>  <r_glide_ring_energy>  (1) 
0

>  <r_i_docking_score>  (1) 
-4.7854133266395262

>  <r_i_glide_ecoul>  (1) 
-7.3916433186756576

>  <r_i_glide_eff_state_penalty>  (1) 
-0

>  <r_i_glide_einternal>  (1) 
12.543112435358967

>  <r_i_glide_emodel>  (1) 
-43.188241515899783

>  <r_i_glide_emodel_strain>  (1) 
0

>  <r_i_glide_energy>  (1) 
-32.918225868230117

>  <r_i_glide_erotb>  (1) 
1.3638172886518747

>  <r_i_glide_esite>  (1) 
-0.15269082464498304

>  <r_i_glide_evdw>  (1) 
-25.526582549554462

>  <r_i_glide_gscore>  (1) 
-4.7854133266395262

>  <r_i_glide_gscore_strain>  (1) 
0

>  <r_i_glide_hbond>  (1) 
-0.13964847206039421

>  <r_i_glide_ligand_efficiency>  (1) 
-0.1993922219433136

>  <r_i_glide_ligand_efficiency_ln>  (1) 
-1.1453689973738324

>  <r_i_glide_ligand_efficiency_sa>  (1) 
-0.57514669284076692

>  <r_i_glide_lipo>  (1) 
-1.6519776288881072

>  <r_i_glide_metal>  (1) 
-0

>  <r_i_glide_rewards>  (1) 
-1.8198380644188454

>  <r_lp_Energy>  (1) 
27.234783

>  <r_lp_tautomer_probability>  (1) 
1

>  <s_epik_cmdline>  (1) 
J2VwaWtfcHl0aG9uJywgJy1waHQnLCAnMS4wJywgJy1waCcsICc3LjQnLCAnLXRuJywgJzgnLCAnLW1hJywgJzUwMCcsICctaW1hZScsICc8aW5maWxlLm1hZT4nLCAnLW9tYWUnLCAnPG91dGZpbGUubWFlPic=

>  <s_epik_input>  (1) 
W09IXVtDSDJdQyg9TylbQ0BdMTJbQ0BIXShPMSlbQ0BAXTIoW0NIMl1bTkgyXSlbQ0gyXVtDSDJdW0NIMl1DKD1PKS9bQ0hdPVtDSF1cYzNbY0hdW2NIXVtjSF1bY0hdYzNbT0hd

>  <s_glide_docking_method>  (1) 
confgen

>  <s_i_glide_gridfile>  (1) 
gpcr_drd2_6luq_protein_autoprepared_prepared

>  <s_lp_Force_Field>  (1) 
S-OPLS

>  <s_lp_Variant>  (1) 
DiffSBDD_44-2

>  <s_m_source_file>  (1) 
generated_generic_title2_ligand_DiffSBDD_2026-06-23_prepared.sdf

>  <GenAI_Model>  (1) 
DiffSBDD

>  <Protein>  (1) 
generic_title2

$$$$
DiffSBDD_65
     RDKit          3D

  0  0  0  0  0  0  0  0  0  0999 V3000
M  V30 BEGIN CTAB
M  V30 COUNTS 66 68 0 0 1
M  V30 BEGIN ATOM
M  V30 1 C 10.205610 7.359784 -8.322861 0 CFG=2
M  V30 2 N 8.786094 4.390224 -13.897401 0
M  V30 3 C 10.155820 6.731782 -6.906651 0
M  V30 4 C 6.975431 4.397964 -17.445475 0
M  V30 5 C 6.986643 5.892617 -21.448467 0
M  V30 6 C 6.381711 5.659483 -19.427014 0 CFG=1
M  V30 7 O 9.375411 8.491298 -8.444976 0
M  V30 8 O 8.175410 2.726985 -15.324887 0
M  V30 9 O 6.623668 5.232906 -16.371905 0
M  V30 10 O 8.575408 5.893069 -9.415629 0
M  V30 11 C 9.920308 6.312969 -9.415052 0 CFG=1
M  V30 12 C 5.987901 6.979132 -18.737786 0
M  V30 13 C 10.207928 7.735466 -5.747729 0
M  V30 14 O 4.068513 5.203871 -22.481076 0
M  V30 15 C 8.897510 6.518443 -19.739237 0
M  V30 16 C 8.234740 5.484924 -13.409317 0
M  V30 17 F 11.194119 5.906725 -6.764900 0
M  V30 18 C 11.212586 6.514969 -12.784698 0
M  V30 19 C 6.641150 4.670312 -15.049214 0 CFG=2
M  V30 20 C 10.119012 6.078840 -11.806071 0 CFG=2
M  V30 21 C 8.754671 6.327223 -12.424913 0
M  V30 22 N 8.072499 7.413583 -11.985026 0
M  V30 23 O 10.335645 6.858503 -10.629802 0
M  V30 24 C 4.600650 7.005200 -18.070652 0
M  V30 25 F 9.042342 6.018451 -6.737729 0
M  V30 26 C 6.258819 6.764019 -13.515710 0
M  V30 27 C 7.752757 5.599327 -20.151997 0 CFG=2
M  V30 28 C 7.040772 5.699127 -13.961579 0
M  V30 29 C 4.356804 5.655456 -21.177026 0
M  V30 30 O 11.375406 8.527763 -5.780761 0
M  V30 31 C 7.972371 3.808604 -14.779743 0
M  V30 32 O 6.163747 4.553978 -18.561407 0
M  V30 33 C 6.811927 7.584830 -12.490559 0
M  V30 34 C 5.765912 5.248482 -20.788650 0 CFG=1
M  V30 35 H 11.224156 7.716456 -8.480593 0
M  V30 36 H 9.672895 4.025990 -13.576541 0
M  V30 37 H 8.032597 4.512807 -17.683558 0
M  V30 38 H 6.805249 3.350563 -17.202119 0
M  V30 39 H 7.359392 5.367068 -22.328217 0
M  V30 40 H 6.855654 6.958117 -21.644285 0
M  V30 41 H 8.491954 8.210538 -8.692189 0
M  V30 42 H 8.001792 6.647445 -9.584705 0
M  V30 43 H 10.506417 5.427492 -9.185029 0
M  V30 44 H 6.727484 7.190763 -17.967704 0
M  V30 45 H 6.051693 7.804740 -19.446094 0
M  V30 46 H 10.175414 7.196697 -4.800106 0
M  V30 47 H 9.339146 8.390211 -5.783172 0
M  V30 48 H 4.707351 5.569082 -23.075300 0
M  V30 49 H 8.643657 7.567487 -19.891351 0
M  V30 50 H 9.157160 6.386221 -18.689240 0
M  V30 51 H 9.791261 6.313083 -20.327700 0
M  V30 52 H 11.121543 5.990494 -13.736506 0
M  V30 53 H 11.142406 7.581395 -12.988552 0
M  V30 54 H 12.203694 6.320261 -12.384988 0
M  V30 55 H 5.775069 4.083417 -14.782695 0
M  V30 56 H 10.198280 5.013423 -11.585159 0
M  V30 57 H 4.465234 7.938899 -17.524264 0
M  V30 58 H 3.786736 6.935036 -18.785081 0
M  V30 59 H 4.479838 6.191989 -17.355555 0
M  V30 60 H 5.272718 6.944800 -13.912027 0
M  V30 61 H 8.098443 4.562495 -20.177306 0
M  V30 62 H 3.647027 5.190228 -20.493845 0
M  V30 63 H 4.220492 6.736196 -21.131718 0
M  V30 64 H 12.114588 7.941629 -5.808924 0
M  V30 65 H 6.239158 8.390226 -12.067094 0
M  V30 66 H 5.860798 4.163994 -20.895831 0
M  V30 END ATOM
M  V30 BEGIN BOND
M  V30 1 1 3 1
M  V30 2 1 7 1
M  V30 3 1 9 4
M  V30 4 1 11 1
M  V30 5 1 11 10
M  V30 6 1 12 6
M  V30 7 1 13 3
M  V30 8 1 16 2
M  V30 9 1 17 3
M  V30 10 1 19 9
M  V30 11 1 20 18
M  V30 12 1 21 16
M  V30 13 1 21 20
M  V30 14 2 22 21
M  V30 15 1 23 11
M  V30 16 1 23 20
M  V30 17 1 24 12
M  V30 18 1 25 3
M  V30 19 1 27 5
M  V30 20 1 27 6
M  V30 21 1 27 15
M  V30 22 2 28 16
M  V30 23 1 28 19
M  V30 24 1 28 26
M  V30 25 1 29 14
M  V30 26 1 30 13
M  V30 27 1 31 2
M  V30 28 2 31 8
M  V30 29 1 31 19
M  V30 30 1 32 4
M  V30 31 1 6 32 CFG=1
M  V30 32 1 33 22
M  V30 33 2 33 26
M  V30 34 1 34 5
M  V30 35 1 34 6
M  V30 36 1 34 29
M  V30 37 1 1 35 CFG=3
M  V30 38 1 36 2
M  V30 39 1 37 4
M  V30 40 1 38 4
M  V30 41 1 39 5
M  V30 42 1 40 5
M  V30 43 1 41 7
M  V30 44 1 42 10
M  V30 45 1 11 43 CFG=1
M  V30 46 1 44 12
M  V30 47 1 45 12
M  V30 48 1 46 13
M  V30 49 1 47 13
M  V30 50 1 48 14
M  V30 51 1 49 15
M  V30 52 1 50 15
M  V30 53 1 51 15
M  V30 54 1 52 18
M  V30 55 1 53 18
M  V30 56 1 54 18
M  V30 57 1 19 55 CFG=1
M  V30 58 1 20 56 CFG=1
M  V30 59 1 57 24
M  V30 60 1 58 24
M  V30 61 1 59 24
M  V30 62 1 60 26
M  V30 63 1 27 61 CFG=3
M  V30 64 1 62 29
M  V30 65 1 63 29
M  V30 66 1 64 30
M  V30 67 1 65 33
M  V30 68 1 34 66 CFG=1
M  V30 END BOND
M  V30 END CTAB
M  END
>  <i_epik_Tot_Q>  (1) 
0

>  <i_epik_Tot_abs_Q>  (1) 
0

>  <i_i_glide_confnum>  (1) 
4744

>  <i_i_glide_lignum>  (1) 
106

>  <i_i_glide_posenum>  (1) 
221

>  <i_i_glide_rotatable_bonds>  (1) 
16

>  <i_lp_mmshare_version>  (1) 
72125

>  <i_m_source_file_index>  (1) 
66

>  <i_f3d_flags>  (1) 
0

>  <num_sample>  (1) 
100

>  <b_lp_Chiralities_Consistent>  (1) 
1

>  <r_epik_Charging_Adjusted_Penalty>  (1) 
0

>  <r_epik_Ionization_Penalty>  (1) 
0.020984920231991385

>  <r_epik_Ionization_Penalty_Charging>  (1) 
0

>  <r_epik_Ionization_Penalty_Neutral>  (1) 
0.020984920231991385

>  <r_epik_State_Penalty>  (1) 
-0

>  <r_glide_ring_energy>  (1) 
0

>  <r_i_docking_score>  (1) 
-4.7779332466093463

>  <r_i_glide_ecoul>  (1) 
-10.642904856324597

>  <r_i_glide_eff_state_penalty>  (1) 
-0

>  <r_i_glide_einternal>  (1) 
13.064872437800204

>  <r_i_glide_emodel>  (1) 
-39.430165075800922

>  <r_i_glide_emodel_strain>  (1) 
1.0978664221205179

>  <r_i_glide_energy>  (1) 
-35.338653033166331

>  <r_i_glide_erotb>  (1) 
0.93044466926125857

>  <r_i_glide_esite>  (1) 
-0.10792094372810773

>  <r_i_glide_evdw>  (1) 
-24.695748176841736

>  <r_i_glide_gscore>  (1) 
-4.7779332466093463

>  <r_i_glide_gscore_strain>  (1) 
0

>  <r_i_glide_hbond>  (1) 
-0.47821389842414114

>  <r_i_glide_ligand_efficiency>  (1) 
-0.14052744842968665

>  <r_i_glide_ligand_efficiency_ln>  (1) 
-1.055579470664131

>  <r_i_glide_ligand_efficiency_sa>  (1) 
-0.45525438033622589

>  <r_i_glide_lipo>  (1) 
-1.5877544303607249

>  <r_i_glide_metal>  (1) 
-0

>  <r_i_glide_rewards>  (1) 
-0.70326550606685434

>  <r_lp_Energy>  (1) 
35.882733000000002

>  <r_lp_tautomer_probability>  (1) 
1

>  <s_epik_Chemistry_Notes>  (1) 
This compound contains an acetal/aminal-like group ( X-CH(R)-Y where X, Y are N, S, or O) that may be acid/base labile, releasing an aldehyde.

>  <s_epik_cmdline>  (1) 
J2VwaWtfcHl0aG9uJywgJy1waHQnLCAnMS4wJywgJy1waCcsICc3LjQnLCAnLXRuJywgJzgnLCAnLW1hJywgJzUwMCcsICctaW1hZScsICc8aW5maWxlLm1hZT4nLCAnLW9tYWUnLCAnPG91dGZpbGUubWFlPic=

>  <s_epik_input>  (1) 
W09IXVtDSDJdQyhGKShGKVtDQEhdKFtPSF0pW0NAQEhdKFtPSF0pT1tDQEhdKFtDSDNdKWMxbltjSF1bY0hdYyhjMTIpW0NASF0oQyg9TylbTkhdMilPW0NIMl1PW0NAQF0zKFtDSDJdW0NIM10pW0NASF0oW0NIM10pW0NIMl1bQ0BASF0zW0NIMl1bT0hd

>  <s_glide_docking_method>  (1) 
confgen

>  <s_i_glide_gridfile>  (1) 
gpcr_drd2_6luq_protein_autoprepared_prepared

>  <s_lp_Force_Field>  (1) 
S-OPLS

>  <s_lp_Variant>  (1) 
DiffSBDD_65-1

>  <s_m_source_file>  (1) 
generated_generic_title2_ligand_DiffSBDD_2026-06-23_prepared.sdf

>  <GenAI_Model>  (1) 
DiffSBDD

>  <Protein>  (1) 
generic_title2

$$$$
DiffSBDD_70
     RDKit          3D

  0  0  0  0  0  0  0  0  0  0999 V3000
M  V30 BEGIN CTAB
M  V30 COUNTS 74 78 0 0 1
M  V30 BEGIN ATOM
M  V30 1 C 7.317058 0.541872 -16.512910 0
M  V30 2 C 10.321822 5.990227 -12.902385 0
M  V30 3 C 9.266969 2.845288 -17.434527 0
M  V30 4 C 9.334834 7.049690 -12.385044 0
M  V30 5 C 17.371425 6.539687 -17.185034 0
M  V30 6 N 16.421637 4.467633 -16.386123 0
M  V30 7 C 5.875654 4.042016 -12.145339 0
M  V30 8 C 7.441668 5.770177 -11.115221 0 CFG=1
M  V30 9 C 7.482611 5.036060 -9.783585 0
M  V30 10 C 7.088306 2.530095 -18.695872 0
M  V30 11 C 6.968219 5.097357 -12.416722 0 CFG=2
M  V30 12 O 13.069353 4.941938 -18.748870 0
M  V30 13 C 8.757634 5.426754 -10.472646 0 CFG=2
M  V30 14 C 6.901175 5.918734 -14.887234 0
M  V30 15 C 6.416946 6.087825 -13.445494 0
M  V30 16 C 7.747391 2.835435 -17.334480 0 CFG=1
M  V30 17 C 16.132124 7.876064 -18.808577 0
M  V30 18 C 11.958604 4.055449 -18.598921 0
M  V30 19 O 7.283791 1.951159 -16.300437 0
M  V30 20 Cl 18.527016 8.862937 -17.999359 0
M  V30 21 C 7.146108 4.472221 -15.380939 0
M  V30 22 C 8.861708 5.138731 -17.174201 0 CFG=2
M  V30 23 C 17.265326 7.686830 -17.999226 0
M  V30 24 C 5.555919 7.059872 -13.101409 0
M  V30 25 C 8.771631 5.971281 -18.466080 0
M  V30 26 N 9.788404 4.050196 -17.326106 0
M  V30 27 C 15.104335 6.921605 -18.806438 0
M  V30 28 C 11.226849 4.321948 -17.270205 0
M  V30 29 C 16.341381 5.571606 -17.166319 0
M  V30 30 N 14.271612 3.705816 -17.184751 0
M  V30 31 C 15.375276 3.625354 -16.432714 0
M  V30 32 N 8.575140 6.705744 -11.158775 0 CFG=1 CHG=1
M  V30 33 O 9.921129 1.813117 -17.584890 0
M  V30 34 C 7.528088 4.346347 -16.879999 0 CFG=1
M  V30 35 C 14.200656 4.807707 -17.962969 0
M  V30 36 C 15.211715 5.778580 -17.988950 0
M  V30 37 H 6.943131 0.045559 -15.617429 0
M  V30 38 H 6.669296 0.239907 -17.335249 0
M  V30 39 H 8.319037 0.157239 -16.693270 0
M  V30 40 H 10.975853 6.390180 -13.672964 0
M  V30 41 H 10.975473 5.647156 -12.107293 0
M  V30 42 H 9.828755 5.122363 -13.335467 0
M  V30 43 H 8.652636 7.395788 -13.155608 0
M  V30 44 H 9.919159 7.931546 -12.123462 0
M  V30 45 H 18.244441 6.402486 -16.565752 0
M  V30 46 H 5.461643 3.640286 -13.069467 0
M  V30 47 H 6.256409 3.190588 -11.585498 0
M  V30 48 H 5.046304 4.468973 -11.579989 0
M  V30 49 H 7.251760 5.590202 -8.879489 0
M  V30 50 H 7.215256 3.990230 -9.744224 0
M  V30 51 H 7.358306 3.272480 -19.446733 0
M  V30 52 H 7.392134 1.558761 -19.087988 0
M  V30 53 H 6.001427 2.530246 -18.610151 0
M  V30 54 H 7.822976 4.567678 -12.817496 0
M  V30 55 H 9.318344 4.656598 -10.994548 0
M  V30 56 H 6.180405 6.400512 -15.550063 0
M  V30 57 H 7.807425 6.507857 -14.975784 0
M  V30 58 H 16.052448 8.755394 -19.431627 0
M  V30 59 H 12.248261 3.008631 -18.702674 0
M  V30 60 H 11.288303 4.266279 -19.432737 0
M  V30 61 H 7.943975 3.998412 -14.812189 0
M  V30 62 H 6.244244 3.895004 -15.184965 0
M  V30 63 H 9.194155 5.760990 -16.347083 0
M  V30 64 H 5.221027 7.174207 -12.080083 0
M  V30 65 H 5.175495 7.752014 -13.837449 0
M  V30 66 H 8.012155 6.749040 -18.384830 0
M  V30 67 H 9.720577 6.461939 -18.684452 0
M  V30 68 H 8.516461 5.353997 -19.327168 0
M  V30 69 H 14.232725 7.065890 -19.428991 0
M  V30 70 H 11.371022 5.367198 -16.995831 0
M  V30 71 H 11.674620 3.743686 -16.460986 0
M  V30 72 H 15.443310 2.757656 -15.793172 0
M  V30 73 H 6.709777 4.781850 -17.455494 0
M  V30 74 H 8.324193 7.478105 -10.543858 0
M  V30 END ATOM
M  V30 BEGIN BOND
M  V30 1 1 4 2
M  V30 2 1 8 9 CFG=1
M  V30 3 1 11 7
M  V30 4 1 11 8
M  V30 5 1 13 8
M  V30 6 1 13 9
M  V30 7 1 15 11
M  V30 8 1 15 14
M  V30 9 1 16 3
M  V30 10 1 16 10
M  V30 11 1 18 12
M  V30 12 1 19 1
M  V30 13 1 16 19 CFG=1
M  V30 14 1 21 14
M  V30 15 2 23 5
M  V30 16 1 23 17
M  V30 17 1 23 20
M  V30 18 2 24 15
M  V30 19 1 25 22
M  V30 20 1 26 3
M  V30 21 1 26 22
M  V30 22 2 27 17
M  V30 23 1 28 18
M  V30 24 1 28 26
M  V30 25 1 29 5
M  V30 26 2 29 6
M  V30 27 1 31 6
M  V30 28 2 31 30
M  V30 29 1 32 4
M  V30 30 1 32 8
M  V30 31 1 32 13
M  V30 32 2 33 3
M  V30 33 1 34 16
M  V30 34 1 34 21
M  V30 35 1 34 22
M  V30 36 1 35 12
M  V30 37 1 35 30
M  V30 38 1 36 27
M  V30 39 1 36 29
M  V30 40 2 36 35
M  V30 41 1 37 1
M  V30 42 1 38 1
M  V30 43 1 39 1
M  V30 44 1 40 2
M  V30 45 1 41 2
M  V30 46 1 42 2
M  V30 47 1 43 4
M  V30 48 1 44 4
M  V30 49 1 45 5
M  V30 50 1 46 7
M  V30 51 1 47 7
M  V30 52 1 48 7
M  V30 53 1 49 9
M  V30 54 1 50 9
M  V30 55 1 51 10
M  V30 56 1 52 10
M  V30 57 1 53 10
M  V30 58 1 11 54 CFG=3
M  V30 59 1 13 55 CFG=3
M  V30 60 1 56 14
M  V30 61 1 57 14
M  V30 62 1 58 17
M  V30 63 1 59 18
M  V30 64 1 60 18
M  V30 65 1 61 21
M  V30 66 1 62 21
M  V30 67 1 22 63 CFG=1
M  V30 68 1 64 24
M  V30 69 1 65 24
M  V30 70 1 66 25
M  V30 71 1 67 25
M  V30 72 1 68 25
M  V30 73 1 69 27
M  V30 74 1 70 28
M  V30 75 1 71 28
M  V30 76 1 72 31
M  V30 77 1 34 73 CFG=3
M  V30 78 1 32 74 CFG=1
M  V30 END BOND
M  V30 END CTAB
M  END
>  <i_epik_Tot_Q>  (1) 
1

>  <i_epik_Tot_abs_Q>  (1) 
1

>  <i_i_glide_confnum>  (1) 
255

>  <i_i_glide_lignum>  (1) 
113

>  <i_i_glide_posenum>  (1) 
391

>  <i_i_glide_rotatable_bonds>  (1) 
11

>  <i_lp_mmshare_version>  (1) 
72125

>  <i_m_source_file_index>  (1) 
71

>  <i_f3d_flags>  (1) 
0

>  <num_sample>  (1) 
100

>  <b_lp_Chiralities_Consistent>  (1) 
1

>  <r_epik_Charging_Adjusted_Penalty>  (1) 
0.028882640618341202

>  <r_epik_Ionization_Penalty>  (1) 
0.014531529159765241

>  <r_epik_Ionization_Penalty_Charging>  (1) 
0.014441320309170608

>  <r_epik_Ionization_Penalty_Neutral>  (1) 
9.020885059463329e-05

>  <r_epik_State_Penalty>  (1) 
0.014441320309170594

>  <r_glide_ring_energy>  (1) 
0

>  <r_i_docking_score>  (1) 
-4.7743887159344682

>  <r_i_glide_ecoul>  (1) 
-7.9316242102364134

>  <r_i_glide_eff_state_penalty>  (1) 
0.014441320309170594

>  <r_i_glide_einternal>  (1) 
4.172552036822033

>  <r_i_glide_emodel>  (1) 
-52.110293486844128

>  <r_i_glide_emodel_strain>  (1) 
0.98990545177281319

>  <r_i_glide_energy>  (1) 
-40.275553678935019

>  <r_i_glide_erotb>  (1) 
0.62084064417162321

>  <r_i_glide_esite>  (1) 
-0.099078078421090857

>  <r_i_glide_evdw>  (1) 
-32.343929468698605

>  <r_i_glide_gscore>  (1) 
-4.7888300362436391

>  <r_i_glide_gscore_strain>  (1) 
0

>  <r_i_glide_hbond>  (1) 
-0.46433803061272416

>  <r_i_glide_ligand_efficiency>  (1) 
-0.13262190877595745

>  <r_i_glide_ligand_efficiency_ln>  (1) 
-1.0416426287403211

>  <r_i_glide_ligand_efficiency_sa>  (1) 
-0.43790789438775141

>  <r_i_glide_lipo>  (1) 
-1.4782441987631543

>  <r_i_glide_metal>  (1) 
-0

>  <r_i_glide_rewards>  (1) 
-0.5610702676478998

>  <r_lp_Energy>  (1) 
33.740380000000002

>  <r_lp_tautomer_probability>  (1) 
1

>  <s_epik_cmdline>  (1) 
J2VwaWtfcHl0aG9uJywgJy1waHQnLCAnMS4wJywgJy1waCcsICc3LjQnLCAnLXRuJywgJzgnLCAnLW1hJywgJzUwMCcsICctaW1hZScsICc8aW5maWxlLm1hZT4nLCAnLW9tYWUnLCAnPG91dGZpbGUubWFlPic=

>  <s_epik_input>  (1) 
W2NIXTFjKENsKVtjSF1bY0hdYyhjMTIpYyhuW2NIXW4yKU9bQ0gyXVtDSDJdTihDKD1PKVtDQEBdMyhbQ0gzXSlPW0NIM10pW0NAQEhdKFtDSDNdKVtDQEBIXTNbQ0gyXVtDSDJdQyg9W0NIMl0pW0NASF0oW0NIM10pQzQ1W0NASF0oW0NIMl00KU41W0NIMl1bQ0gzXQ==

>  <s_glide_docking_method>  (1) 
confgen

>  <s_i_glide_gridfile>  (1) 
gpcr_drd2_6luq_protein_autoprepared_prepared

>  <s_lp_Force_Field>  (1) 
S-OPLS

>  <s_lp_Variant>  (1) 
DiffSBDD_70-1

>  <s_m_source_file>  (1) 
generated_generic_title2_ligand_DiffSBDD_2026-06-23_prepared.sdf

>  <GenAI_Model>  (1) 
DiffSBDD

>  <Protein>  (1) 
generic_title2

$$$$
DiffSBDD_35
     RDKit          3D

  0  0  0  0  0  0  0  0  0  0999 V3000
M  V30 BEGIN CTAB
M  V30 COUNTS 58 60 0 0 1
M  V30 BEGIN ATOM
M  V30 1 O 8.797681 4.547523 -18.096833 0
M  V30 2 N 11.909932 8.830089 -4.459483 0 CHG=1
M  V30 3 C 12.174745 6.736795 -2.668542 0
M  V30 4 C 10.852144 8.559956 -6.994553 0
M  V30 5 C 7.131798 5.640601 -15.845432 0
M  V30 6 C 8.276630 3.522004 -17.311150 0
M  V30 7 C 10.466983 6.190007 -6.511919 0
M  V30 8 C 5.928862 6.793973 -13.933394 0
M  V30 9 C 12.575486 9.039885 -3.306099 0
M  V30 10 Cl 5.534777 6.353131 -11.372616 0
M  V30 11 O 8.486250 3.721459 -15.943701 0
M  V30 12 C 9.617646 8.102600 -10.790832 0
M  V30 13 C 7.748859 5.536466 -12.794301 0
M  V30 14 C 11.488235 6.549509 -3.885689 0
M  V30 15 S 8.542814 5.416161 -11.159165 0
M  V30 16 C 6.582289 6.881876 -15.253343 0
M  V30 17 C 10.107504 7.951341 -8.211720 0 CFG=2
M  V30 18 C 10.188810 6.416613 -7.996212 0 CFG=2
M  V30 19 C 7.967992 4.783709 -15.226401 0
M  V30 20 C 12.065424 8.243808 -9.879502 0
M  V30 21 C 10.563381 8.478372 -9.600138 0 CFG=1
M  V30 22 N 10.657930 7.522608 -6.010327 0
M  V30 23 C 6.448674 6.237112 -12.835608 0
M  V30 24 O 9.375347 4.132649 -11.133204 0
M  V30 25 C 11.364422 7.637072 -4.786733 0
M  V30 26 O 10.758427 6.522861 -12.176342 0
M  V30 27 C 9.789034 6.731642 -11.448013 0
M  V30 28 C 10.205657 4.683109 -17.983829 0
M  V30 29 F 9.051500 5.804388 -8.307066 0
M  V30 30 C 8.396944 4.906239 -13.826039 0
M  V30 31 C 12.721764 7.998779 -2.375961 0
M  V30 32 H 12.274808 5.920996 -1.966662 0
M  V30 33 H 11.917939 8.694626 -7.167694 0
M  V30 34 H 10.415363 9.508027 -6.681665 0
M  V30 35 H 6.873381 5.476381 -16.878237 0
M  V30 36 H 8.753870 2.581383 -17.589461 0
M  V30 37 H 7.211131 3.403833 -17.514877 0
M  V30 38 H 11.362571 5.584899 -6.378678 0
M  V30 39 H 9.614032 5.734423 -6.014284 0
M  V30 40 H 4.975414 7.287009 -13.855651 0
M  V30 41 H 12.968678 10.026283 -3.160578 0
M  V30 42 H 9.775421 8.790228 -11.615782 0
M  V30 43 H 8.575570 8.252746 -10.529387 0
M  V30 44 H 11.052718 5.590226 -4.116737 0
M  V30 45 H 5.846633 7.277913 -15.954051 0
M  V30 46 H 7.371275 7.630899 -15.184691 0
M  V30 47 H 9.057288 8.225816 -8.086747 0
M  V30 48 H 10.975366 5.968450 -8.597556 0
M  V30 49 H 12.306897 7.190215 -9.989935 0
M  V30 50 H 12.381674 8.748701 -10.785018 0
M  V30 51 H 12.707878 8.644195 -9.098068 0
M  V30 52 H 10.471420 9.560239 -9.521116 0
M  V30 53 H 10.547091 5.486756 -18.635780 0
M  V30 54 H 10.501904 4.933994 -16.964271 0
M  V30 55 H 10.718720 3.768023 -18.282252 0
M  V30 56 H 9.314311 4.395472 -13.569650 0
M  V30 57 H 13.249839 8.166672 -1.447972 0
M  V30 58 H 11.811318 9.607393 -5.112805 0
M  V30 END ATOM
M  V30 BEGIN BOND
M  V30 1 1 6 1
M  V30 2 2 9 2
M  V30 3 1 11 6
M  V30 4 1 14 3
M  V30 5 1 15 13
M  V30 6 1 16 5
M  V30 7 1 16 8
M  V30 8 1 17 4
M  V30 9 1 18 7
M  V30 10 1 18 17
M  V30 11 2 19 5
M  V30 12 1 19 11
M  V30 13 1 21 12
M  V30 14 1 21 17
M  V30 15 1 21 20
M  V30 16 1 22 4
M  V30 17 1 22 7
M  V30 18 2 23 8
M  V30 19 1 23 10
M  V30 20 1 23 13
M  V30 21 2 24 15
M  V30 22 1 25 2
M  V30 23 2 25 14
M  V30 24 1 25 22
M  V30 25 1 27 12
M  V30 26 1 15 27 CFG=3
M  V30 27 2 27 26
M  V30 28 1 28 1
M  V30 29 1 29 18
M  V30 30 2 30 13
M  V30 31 1 30 19
M  V30 32 2 31 3
M  V30 33 1 31 9
M  V30 34 1 32 3
M  V30 35 1 33 4
M  V30 36 1 34 4
M  V30 37 1 35 5
M  V30 38 1 36 6
M  V30 39 1 37 6
M  V30 40 1 38 7
M  V30 41 1 39 7
M  V30 42 1 40 8
M  V30 43 1 41 9
M  V30 44 1 42 12
M  V30 45 1 43 12
M  V30 46 1 44 14
M  V30 47 1 45 16
M  V30 48 1 46 16
M  V30 49 1 17 47 CFG=1
M  V30 50 1 18 48 CFG=3
M  V30 51 1 49 20
M  V30 52 1 50 20
M  V30 53 1 51 20
M  V30 54 1 21 52 CFG=1
M  V30 55 1 53 28
M  V30 56 1 54 28
M  V30 57 1 55 28
M  V30 58 1 56 30
M  V30 59 1 57 31
M  V30 60 1 58 2
M  V30 END BOND
M  V30 END CTAB
M  END
>  <i_epik_Tot_Q>  (1) 
1

>  <i_epik_Tot_abs_Q>  (1) 
1

>  <i_i_glide_confnum>  (1) 
55

>  <i_i_glide_lignum>  (1) 
60

>  <i_i_glide_posenum>  (1) 
29

>  <i_i_glide_rotatable_bonds>  (1) 
9

>  <i_lp_mmshare_version>  (1) 
72125

>  <i_m_source_file_index>  (1) 
36

>  <i_f3d_flags>  (1) 
0

>  <num_sample>  (1) 
100

>  <b_lp_Chiralities_Consistent>  (1) 
1

>  <r_epik_Charging_Adjusted_Penalty>  (1) 
2.209854292761551

>  <r_epik_Ionization_Penalty>  (1) 
1.1049271463807997

>  <r_epik_Ionization_Penalty_Charging>  (1) 
1.1049271463807746

>  <r_epik_Ionization_Penalty_Neutral>  (1) 
2.4996070932980704e-14

>  <r_epik_State_Penalty>  (1) 
1.1049271463807766

>  <r_glide_ring_energy>  (1) 
0

>  <r_i_docking_score>  (1) 
-4.7646010978933448

>  <r_i_glide_ecoul>  (1) 
-2.066041956714507

>  <r_i_glide_eff_state_penalty>  (1) 
1.1049271463807766

>  <r_i_glide_einternal>  (1) 
5.9314205831707261

>  <r_i_glide_emodel>  (1) 
-56.470140313552378

>  <r_i_glide_emodel_strain>  (1) 
0

>  <r_i_glide_energy>  (1) 
-42.957538546697585

>  <r_i_glide_erotb>  (1) 
0.7316535107535509

>  <r_i_glide_esite>  (1) 
-0.13323780833889201

>  <r_i_glide_evdw>  (1) 
-40.891496589983078

>  <r_i_glide_gscore>  (1) 
-5.8695282442741217

>  <r_i_glide_gscore_strain>  (1) 
0

>  <r_i_glide_hbond>  (1) 
0

>  <r_i_glide_ligand_efficiency>  (1) 
-0.15369680960946275

>  <r_i_glide_ligand_efficiency_ln>  (1) 
-1.0745635650625627

>  <r_i_glide_ligand_efficiency_sa>  (1) 
-0.48282018404144988

>  <r_i_glide_lipo>  (1) 
-2.7271037171563988

>  <r_i_glide_metal>  (1) 
-0

>  <r_i_glide_rewards>  (1) 
-1.3863591065260519

>  <r_lp_Energy>  (1) 
47.315815999999998

>  <r_lp_tautomer_probability>  (1) 
0.99999385203779767

>  <s_epik_Chemistry_Notes>  (1) 
This compound contains an acetal/aminal-like group ( X-CH(R)-Y where X, Y are N, S, or O) that may be acid/base labile, releasing an aldehyde.

>  <s_epik_cmdline>  (1) 
J2VwaWtfcHl0aG9uJywgJy1waHQnLCAnMS4wJywgJy1waCcsICc3LjQnLCAnLXRuJywgJzgnLCAnLW1hJywgJzUwMCcsICctaW1hZScsICc8aW5maWxlLm1hZT4nLCAnLW9tYWUnLCAnPG91dGZpbGUubWFlPic=

>  <s_epik_input>  (1) 
Q2xDMT1bQ0hdW0NIMl1bQ0hdPUMoT1tDSDJdT1tDSDNdKVtDSF09QzFbU0BAXSg9TylDKD1PKVtDSDJdW0NASF0oW0NIM10pW0NAQEhdMltDSDJdTihbQ0gyXVtDQEhdMkYpYzNuW2NIXVtjSF1bY0hdW2NIXTM=

>  <s_glide_docking_method>  (1) 
confgen

>  <s_i_glide_gridfile>  (1) 
gpcr_drd2_6luq_protein_autoprepared_prepared

>  <s_lp_Force_Field>  (1) 
S-OPLS

>  <s_lp_Variant>  (1) 
DiffSBDD_35-2

>  <s_m_source_file>  (1) 
generated_generic_title2_ligand_DiffSBDD_2026-06-23_prepared.sdf

>  <GenAI_Model>  (1) 
DiffSBDD

>  <Protein>  (1) 
generic_title2

$$$$
DiffSBDD_64
     RDKit          3D

  0  0  0  0  0  0  0  0  0  0999 V3000
M  V30 BEGIN CTAB
M  V30 COUNTS 77 80 0 0 1
M  V30 BEGIN ATOM
M  V30 1 C 6.169254 6.884299 -17.372503 0
M  V30 2 C 9.327253 8.702017 -8.070239 0
M  V30 3 C 4.988284 6.457521 -19.570315 0 CFG=2
M  V30 4 C 7.451346 5.202577 -12.341061 0
M  V30 5 C 10.865069 6.001856 -6.407081 0
M  V30 6 C 7.028383 7.372059 -20.890466 0
M  V30 7 C 6.482617 6.106801 -13.120231 0 CFG=1
M  V30 8 O 11.654063 9.174580 -7.488786 0
M  V30 9 C 6.918910 5.020388 -19.918954 0
M  V30 10 C 4.363207 7.874031 -19.598925 0
M  V30 11 C 8.757374 5.911258 -11.900418 0
M  V30 12 C 10.955545 6.960793 -5.231716 0
M  V30 13 C 10.311950 8.233187 -5.772792 0
M  V30 14 C 7.133013 4.135955 -17.511821 0
M  V30 15 N 5.438709 5.929982 -18.251809 0 CFG=1 CHG=1
M  V30 16 C 4.977903 8.126162 -15.583854 0
M  V30 17 C 10.588572 8.265264 -7.290255 0 CFG=1
M  V30 18 C 6.125640 6.167315 -20.570205 0 CFG=1
M  V30 19 C 6.197575 4.698531 -18.602152 0 CFG=1
M  V30 20 C 6.280018 7.347542 -12.251829 0
M  V30 21 C 7.618718 8.078288 -11.985024 0
M  V30 22 C 9.487332 9.028026 -9.578962 0
M  V30 23 C 10.814242 7.002462 -10.167855 0
M  V30 24 C 10.391245 6.231551 -8.894710 0
M  V30 25 C 11.067636 6.844453 -7.654347 0 CFG=2
M  V30 26 S 7.128782 6.502817 -14.784777 0
M  V30 27 N 8.544513 7.216883 -11.185045 0 CFG=2 CHG=1
M  V30 28 C 9.747882 7.938522 -10.655978 0 CFG=1
M  V30 29 C 5.705080 6.812005 -15.895440 0 CFG=2
M  V30 30 H 5.998774 7.896204 -17.710760 0
M  V30 31 H 7.246540 6.782909 -17.485447 0
M  V30 32 H 8.575415 7.942585 -7.913363 0
M  V30 33 H 8.910216 9.582310 -7.584999 0
M  V30 34 H 4.175492 5.783616 -19.847625 0
M  V30 35 H 7.696397 4.322339 -12.935813 0
M  V30 36 H 6.942481 4.826587 -11.452607 0
M  V30 37 H 11.603385 5.200829 -6.354653 0
M  V30 38 H 9.857282 5.590210 -6.425795 0
M  V30 39 H 7.464824 7.797680 -19.987738 0
M  V30 40 H 7.850623 7.078163 -21.543383 0
M  V30 41 H 6.477457 8.163083 -21.398720 0
M  V30 42 H 5.535119 5.581385 -13.251139 0
M  V30 43 H 12.396208 8.870974 -6.989799 0
M  V30 44 H 7.944247 5.334745 -19.716963 0
M  V30 45 H 6.977774 4.145775 -20.567417 0
M  V30 46 H 3.891086 8.055745 -20.564726 0
M  V30 47 H 3.591116 7.987960 -18.836688 0
M  V30 48 H 5.085585 8.678177 -19.462816 0
M  V30 49 H 9.393294 6.085811 -12.770841 0
M  V30 50 H 9.270351 5.194216 -11.259860 0
M  V30 51 H 11.989660 7.135297 -4.942475 0
M  V30 52 H 10.439038 6.566464 -4.357474 0
M  V30 53 H 10.645421 9.128285 -5.245013 0
M  V30 54 H 9.239206 8.154762 -5.609181 0
M  V30 55 H 7.450433 3.125200 -17.767084 0
M  V30 56 H 8.039458 4.729020 -17.395757 0
M  V30 57 H 6.649080 4.088173 -16.537426 0
M  V30 58 H 4.104895 8.250344 -16.225134 0
M  V30 59 H 4.625346 8.196256 -14.563275 0
M  V30 60 H 5.636315 8.972233 -15.770292 0
M  V30 61 H 5.688993 5.822461 -21.509011 0
M  V30 62 H 5.440538 3.940067 -18.810653 0
M  V30 63 H 5.534456 7.989992 -12.693932 0
M  V30 64 H 5.831193 7.048610 -11.302306 0
M  V30 65 H 7.378444 9.000550 -11.462054 0
M  V30 66 H 8.099489 8.382530 -12.914189 0
M  V30 67 H 10.349617 9.687037 -9.584953 0
M  V30 68 H 8.618719 9.590193 -9.894830 0
M  V30 69 H 11.752246 7.538879 -10.014185 0
M  V30 70 H 10.975642 6.390232 -11.037080 0
M  V30 71 H 10.575410 5.167403 -8.952592 0
M  V30 72 H 9.308020 6.201861 -8.790750 0
M  V30 73 H 12.143769 6.880132 -7.814290 0
M  V30 74 H 10.167573 8.426800 -11.533858 0
M  V30 75 H 5.009233 5.985300 -15.755146 0
M  V30 76 H 7.982705 7.048206 -10.346320 0
M  V30 77 H 4.611269 5.661268 -17.738871 0
M  V30 END ATOM
M  V30 BEGIN BOND
M  V30 1 1 7 4
M  V30 2 1 10 3
M  V30 3 1 11 4
M  V30 4 1 12 5
M  V30 5 1 13 12
M  V30 6 1 15 1
M  V30 7 1 15 3
M  V30 8 1 17 2
M  V30 9 1 17 8 CFG=1
M  V30 10 1 17 13
M  V30 11 1 18 3
M  V30 12 1 18 6
M  V30 13 1 18 9
M  V30 14 1 19 9
M  V30 15 1 19 14
M  V30 16 1 19 15
M  V30 17 1 20 7
M  V30 18 1 21 20
M  V30 19 1 22 2
M  V30 20 1 24 23
M  V30 21 1 25 5
M  V30 22 1 25 17
M  V30 23 1 25 24
M  V30 24 1 26 7
M  V30 25 1 27 11
M  V30 26 1 27 21
M  V30 27 1 28 22
M  V30 28 1 28 23
M  V30 29 1 28 27
M  V30 30 1 29 1
M  V30 31 1 29 16
M  V30 32 1 29 26
M  V30 33 1 30 1
M  V30 34 1 31 1
M  V30 35 1 32 2
M  V30 36 1 33 2
M  V30 37 1 3 34 CFG=3
M  V30 38 1 35 4
M  V30 39 1 36 4
M  V30 40 1 37 5
M  V30 41 1 38 5
M  V30 42 1 39 6
M  V30 43 1 40 6
M  V30 44 1 41 6
M  V30 45 1 7 42 CFG=3
M  V30 46 1 43 8
M  V30 47 1 44 9
M  V30 48 1 45 9
M  V30 49 1 46 10
M  V30 50 1 47 10
M  V30 51 1 48 10
M  V30 52 1 49 11
M  V30 53 1 50 11
M  V30 54 1 51 12
M  V30 55 1 52 12
M  V30 56 1 53 13
M  V30 57 1 54 13
M  V30 58 1 55 14
M  V30 59 1 56 14
M  V30 60 1 57 14
M  V30 61 1 58 16
M  V30 62 1 59 16
M  V30 63 1 60 16
M  V30 64 1 18 61 CFG=3
M  V30 65 1 19 62 CFG=3
M  V30 66 1 63 20
M  V30 67 1 64 20
M  V30 68 1 65 21
M  V30 69 1 66 21
M  V30 70 1 67 22
M  V30 71 1 68 22
M  V30 72 1 69 23
M  V30 73 1 70 23
M  V30 74 1 71 24
M  V30 75 1 72 24
M  V30 76 1 25 73 CFG=3
M  V30 77 1 28 74 CFG=3
M  V30 78 1 29 75 CFG=3
M  V30 79 1 27 76 CFG=1
M  V30 80 1 15 77 CFG=1
M  V30 END BOND
M  V30 END CTAB
M  END
>  <i_epik_Tot_Q>  (1) 
2

>  <i_epik_Tot_abs_Q>  (1) 
2

>  <i_i_glide_confnum>  (1) 
64

>  <i_i_glide_lignum>  (1) 
102

>  <i_i_glide_posenum>  (1) 
367

>  <i_i_glide_rotatable_bonds>  (1) 
6

>  <i_lp_mmshare_version>  (1) 
72125

>  <i_m_source_file_index>  (1) 
65

>  <i_f3d_flags>  (1) 
0

>  <num_sample>  (1) 
100

>  <b_lp_Chiralities_Consistent>  (1) 
1

>  <r_epik_Charging_Adjusted_Penalty>  (1) 
0.010385271147369776

>  <r_epik_Ionization_Penalty>  (1) 
0.010385491156522124

>  <r_epik_Ionization_Penalty_Charging>  (1) 
0.010385271147369776

>  <r_epik_Ionization_Penalty_Neutral>  (1) 
2.2000915234807092e-07

>  <r_epik_State_Penalty>  (1) 
-0

>  <r_glide_ring_energy>  (1) 
0

>  <r_i_docking_score>  (1) 
-4.7575558396099389

>  <r_i_glide_ecoul>  (1) 
-5.1073320867299659

>  <r_i_glide_eff_state_penalty>  (1) 
-0

>  <r_i_glide_einternal>  (1) 
4.1183092694711885

>  <r_i_glide_emodel>  (1) 
-23.903486345804186

>  <r_i_glide_emodel_strain>  (1) 
4.3719277155824869

>  <r_i_glide_energy>  (1) 
-23.016639358364102

>  <r_i_glide_erotb>  (1) 
0.5496323063178965

>  <r_i_glide_esite>  (1) 
-0.10000000000000001

>  <r_i_glide_evdw>  (1) 
-17.909307271634137

>  <r_i_glide_gscore>  (1) 
-4.7575558396099389

>  <r_i_glide_gscore_strain>  (1) 
0.092981928895621735

>  <r_i_glide_hbond>  (1) 
-0.15257853716186834

>  <r_i_glide_ligand_efficiency>  (1) 
-0.16405364964172203

>  <r_i_glide_ligand_efficiency_ln>  (1) 
-1.0893596460637915

>  <r_i_glide_ligand_efficiency_sa>  (1) 
-0.50402478810943363

>  <r_i_glide_lipo>  (1) 
-2.0728771110703854

>  <r_i_glide_metal>  (1) 
-0

>  <r_i_glide_rewards>  (1) 
-1.4131492500000007

>  <r_lp_Energy>  (1) 
54.772919999999999

>  <r_lp_tautomer_probability>  (1) 
1

>  <s_epik_cmdline>  (1) 
J2VwaWtfcHl0aG9uJywgJy1waHQnLCAnMS4wJywgJy1waCcsICc3LjQnLCAnLXRuJywgJzgnLCAnLW1hJywgJzUwMCcsICctaW1hZScsICc8aW5maWxlLm1hZT4nLCAnLW9tYWUnLCAnPG91dGZpbGUubWFlPic=

>  <s_epik_input>  (1) 
W0NIM11bQ0BIXTFbQ0gyXVtDQEBIXShbQ0gzXSlOKFtDQEhdMVtDSDNdKVtDSDJdW0NASF0oW0NIM10pU1tDSF0yW0NIMl1bQ0gyXU4oW0NIMl1bQ0gyXTIpW0NAQEhdKFtDSDJdW0NIMl0zKVtDSDJdW0NIMl1bQ0BASF0oW0NAQF0zNFtPSF0pW0NIMl1bQ0gyXVtDSDJdNA==

>  <s_glide_docking_method>  (1) 
confgen

>  <s_i_glide_gridfile>  (1) 
gpcr_drd2_6luq_protein_autoprepared_prepared

>  <s_lp_Force_Field>  (1) 
S-OPLS

>  <s_lp_Variant>  (1) 
DiffSBDD_64-1

>  <s_m_source_file>  (1) 
generated_generic_title2_ligand_DiffSBDD_2026-06-23_prepared.sdf

>  <GenAI_Model>  (1) 
DiffSBDD

>  <Protein>  (1) 
generic_title2

$$$$
DiffSBDD_81
     RDKit          3D

  0  0  0  0  0  0  0  0  0  0999 V3000
M  V30 BEGIN CTAB
M  V30 COUNTS 68 71 0 0 1
M  V30 BEGIN ATOM
M  V30 1 C 8.381237 5.131383 -12.332557 0 CFG=1
M  V30 2 C 11.438001 7.186352 -6.203471 0
M  V30 3 O 11.375470 10.082959 -5.156677 0
M  V30 4 C 11.728411 9.564433 -3.888455 0
M  V30 5 C 7.126726 3.316120 -13.790892 0
M  V30 6 C 6.773154 1.568404 -15.328070 0
M  V30 7 C 6.522251 2.100202 -14.016848 0
M  V30 8 C 9.602303 4.225698 -12.023892 0
M  V30 9 O 12.575417 6.230943 -2.384918 0
M  V30 10 O 5.917513 5.008422 -12.531612 0
M  V30 11 C 9.411630 7.077601 -10.918691 0 CFG=2
M  V30 12 C 5.518965 -0.409758 -14.764913 0
M  V30 13 C 8.899592 5.044635 -15.550358 0 CFG=1
M  V30 14 C 8.190162 6.151283 -11.179240 0
M  V30 15 C 8.171589 3.629581 -15.746276 0
M  V30 16 O 12.760040 8.390225 -1.585108 0
M  V30 17 N 8.575394 5.990221 -13.501062 0
M  V30 18 C 10.319969 6.163111 -4.308448 0
M  V30 19 C 7.858176 3.772619 -14.864240 0
M  V30 20 C 11.965876 8.046773 -3.888211 0 CFG=1
M  V30 21 O 9.573809 5.389531 -14.362545 0
M  V30 22 C 7.108131 4.242019 -12.568511 0 CFG=2
M  V30 23 C 10.294950 6.657420 -9.733900 0
M  V30 24 C 7.639492 2.353504 -16.211364 0
M  V30 25 C 10.391770 6.671150 -7.166707 0 CFG=2
M  V30 26 C 10.149902 7.436786 -8.445599 0 CFG=2
M  V30 27 O 8.975412 8.403815 -10.784924 0
M  V30 28 O 7.078700 -0.456451 -16.466541 0
M  V30 29 C 9.040445 7.278973 -7.439694 0
M  V30 30 C 12.023091 7.519793 -2.413018 0
M  V30 31 N 6.187028 0.377074 -15.776883 0
M  V30 32 N 10.975408 7.382034 -4.806798 0 CFG=1 CHG=1
M  V30 33 H 12.175482 6.393236 -6.187018 0
M  V30 34 H 11.905128 8.082774 -6.609311 0
M  V30 35 H 11.332470 11.027731 -5.102677 0
M  V30 36 H 10.975310 9.859790 -3.160457 0
M  V30 37 H 12.674405 9.990258 -3.571111 0
M  V30 38 H 5.898604 1.614883 -13.282280 0
M  V30 39 H 9.477769 3.719888 -11.066822 0
M  V30 40 H 9.739172 3.445949 -12.772498 0
M  V30 41 H 10.533929 4.788436 -11.985009 0
M  V30 42 H 12.328325 5.805320 -1.575541 0
M  V30 43 H 5.931033 5.536685 -11.747312 0
M  V30 44 H 10.064602 7.098318 -11.790859 0
M  V30 45 H 4.732089 0.153990 -14.263851 0
M  V30 46 H 5.005597 -1.217327 -15.271512 0
M  V30 47 H 6.208966 -0.809582 -14.020847 0
M  V30 48 H 8.287969 5.853702 -15.949050 0
M  V30 49 H 7.331322 6.780668 -11.417017 0
M  V30 50 H 7.911380 5.635339 -10.259168 0
M  V30 51 H 13.596501 8.576155 -1.984618 0
M  V30 52 H 8.975637 6.871299 -13.211814 0
M  V30 53 H 11.008264 5.334711 -4.384945 0
M  V30 54 H 9.965288 6.190548 -3.283709 0
M  V30 55 H 9.436926 5.990220 -4.917493 0
M  V30 56 H 12.963467 7.923899 -4.283565 0
M  V30 57 H 7.024924 3.590236 -11.701158 0
M  V30 58 H 10.173005 5.593081 -9.536431 0
M  V30 59 H 11.333636 6.790254 -10.033074 0
M  V30 60 H 7.860720 2.003327 -17.208765 0
M  V30 61 H 10.390390 5.585861 -7.232982 0
M  V30 62 H 10.543288 8.450743 -8.512506 0
M  V30 63 H 8.159925 8.373026 -10.262041 0
M  V30 64 H 7.458118 -1.035129 -15.817342 0
M  V30 65 H 8.744265 8.154983 -6.866070 0
M  V30 66 H 8.243963 6.575759 -7.676074 0
M  V30 67 H 11.035752 7.477465 -1.955699 0
M  V30 68 H 10.239772 8.069706 -4.892972 0
M  V30 END ATOM
M  V30 BEGIN BOND
M  V30 1 1 4 3
M  V30 2 2 7 5
M  V30 3 1 7 6
M  V30 4 1 1 8 CFG=1
M  V30 5 1 14 1
M  V30 6 1 14 11
M  V30 7 1 15 13
M  V30 8 1 17 1
M  V30 9 1 19 5
M  V30 10 1 19 13
M  V30 11 2 19 15
M  V30 12 1 20 4
M  V30 13 1 21 13
M  V30 14 1 21 17
M  V30 15 1 22 1
M  V30 16 1 22 5
M  V30 17 1 22 10
M  V30 18 1 23 11
M  V30 19 2 24 6
M  V30 20 1 24 15
M  V30 21 1 25 2
M  V30 22 1 26 23
M  V30 23 1 26 25
M  V30 24 1 27 11
M  V30 25 1 29 25
M  V30 26 1 29 26
M  V30 27 1 30 9
M  V30 28 1 30 16
M  V30 29 1 30 20
M  V30 30 1 31 6
M  V30 31 1 31 12
M  V30 32 1 31 28
M  V30 33 1 32 2
M  V30 34 1 32 18
M  V30 35 1 32 20
M  V30 36 1 33 2
M  V30 37 1 34 2
M  V30 38 1 35 3
M  V30 39 1 36 4
M  V30 40 1 37 4
M  V30 41 1 38 7
M  V30 42 1 39 8
M  V30 43 1 40 8
M  V30 44 1 41 8
M  V30 45 1 42 9
M  V30 46 1 43 10
M  V30 47 1 11 44 CFG=3
M  V30 48 1 45 12
M  V30 49 1 46 12
M  V30 50 1 47 12
M  V30 51 1 13 48 CFG=3
M  V30 52 1 49 14
M  V30 53 1 50 14
M  V30 54 1 51 16
M  V30 55 1 52 17
M  V30 56 1 53 18
M  V30 57 1 54 18
M  V30 58 1 55 18
M  V30 59 1 20 56 CFG=3
M  V30 60 1 22 57 CFG=1
M  V30 61 1 58 23
M  V30 62 1 59 23
M  V30 63 1 60 24
M  V30 64 1 25 61 CFG=3
M  V30 65 1 26 62 CFG=3
M  V30 66 1 63 27
M  V30 67 1 64 28
M  V30 68 1 65 29
M  V30 69 1 66 29
M  V30 70 1 67 30
M  V30 71 1 32 68 CFG=3
M  V30 END BOND
M  V30 END CTAB
M  END
>  <i_epik_Tot_Q>  (1) 
1

>  <i_epik_Tot_abs_Q>  (1) 
1

>  <i_i_glide_confnum>  (1) 
2041

>  <i_i_glide_lignum>  (1) 
144

>  <i_i_glide_posenum>  (1) 
379

>  <i_i_glide_rotatable_bonds>  (1) 
16

>  <i_lp_mmshare_version>  (1) 
72125

>  <i_m_source_file_index>  (1) 
82

>  <i_f3d_flags>  (1) 
0

>  <num_sample>  (1) 
100

>  <b_lp_Chiralities_Consistent>  (1) 
1

>  <r_epik_Charging_Adjusted_Penalty>  (1) 
0.61642058797261945

>  <r_epik_Ionization_Penalty>  (1) 
0.30960007796245242

>  <r_epik_Ionization_Penalty_Charging>  (1) 
0.30821029398630978

>  <r_epik_Ionization_Penalty_Neutral>  (1) 
0.0013897839761426282

>  <r_epik_State_Penalty>  (1) 
0.30821029398630967

>  <r_glide_ring_energy>  (1) 
0

>  <r_i_docking_score>  (1) 
-4.7563746208453548

>  <r_i_glide_ecoul>  (1) 
-9.1359064361108615

>  <r_i_glide_eff_state_penalty>  (1) 
0.30821029398630967

>  <r_i_glide_einternal>  (1) 
23.727552016577221

>  <r_i_glide_emodel>  (1) 
-27.821712559207398

>  <r_i_glide_emodel_strain>  (1) 
5.9761098446233518

>  <r_i_glide_energy>  (1) 
-35.015697868592198

>  <r_i_glide_erotb>  (1) 
0.97195684176611152

>  <r_i_glide_esite>  (1) 
-0.014206700921979835

>  <r_i_glide_evdw>  (1) 
-25.879791432481337

>  <r_i_glide_gscore>  (1) 
-5.0645849148316646

>  <r_i_glide_gscore_strain>  (1) 
0.49402746115583795

>  <r_i_glide_hbond>  (1) 
-0.35260128230321619

>  <r_i_glide_ligand_efficiency>  (1) 
-0.14863670690141734

>  <r_i_glide_ligand_efficiency_ln>  (1) 
-1.0650819314826514

>  <r_i_glide_ligand_efficiency_sa>  (1) 
-0.47189212979279771

>  <r_i_glide_lipo>  (1) 
-2.0680074165897344

>  <r_i_glide_metal>  (1) 
-0

>  <r_i_glide_rewards>  (1) 
-1.4313782808979871

>  <r_lp_Energy>  (1) 
74.801774999999992

>  <s_epik_Chemistry_Notes>  (1) 
This compound contains an acetal/aminal-like group ( X-CH(R)-Y where X, Y are N, S, or O) that may be acid/base labile, releasing an aldehyde. This compound has a N-S or N-O group and may undergo hydrolysis at high or low pH.

>  <s_epik_cmdline>  (1) 
J2VwaWtfcHl0aG9uJywgJy1waHQnLCAnMS4wJywgJy1waCcsICc3LjQnLCAnLXRuJywgJzgnLCAnLW1hJywgJzUwMCcsICctaW1hZScsICc8aW5maWxlLm1hZT4nLCAnLW9tYWUnLCAnPG91dGZpbGUubWFlPic=

>  <s_epik_input>  (1) 
W0NIM11OKFtPSF0pYyhbY0hdMSlbY0hdYyhjMmMxMylbQ0BASF0yT1tOSF1bQ0BdKFtDSDNdKShbQ0BIXTNbT0hdKVtDSDJdW0NAQEhdKFtPSF0pW0NIMl1bQ0BASF0oW0NIMl00KVtDQEhdNFtDSDJdTihbQ0gzXSlbQ0BASF0oW0NIMl1bT0hdKVtDSF0oW09IXSlbT0hd

>  <s_glide_docking_method>  (1) 
confgen

>  <s_i_glide_gridfile>  (1) 
gpcr_drd2_6luq_protein_autoprepared_prepared

>  <s_lp_Force_Field>  (1) 
S-OPLS

>  <s_lp_Variant>  (1) 
DiffSBDD_81-2

>  <s_m_source_file>  (1) 
generated_generic_title2_ligand_DiffSBDD_2026-06-23_prepared.sdf

>  <GenAI_Model>  (1) 
DiffSBDD

>  <Protein>  (1) 
generic_title2

$$$$
DiffSBDD_6
     RDKit          3D

  0  0  0  0  0  0  0  0  0  0999 V3000
M  V30 BEGIN CTAB
M  V30 COUNTS 72 73 0 0 1
M  V30 BEGIN ATOM
M  V30 1 C 6.281388 4.573378 -18.893891 0
M  V30 2 O 14.325859 8.390227 -10.018466 0
M  V30 3 C 11.437985 7.974298 -7.604471 0 CFG=1
M  V30 4 C 6.889488 3.371289 -20.864758 0
M  V30 5 C 7.459042 4.449301 -11.604677 0
M  V30 6 C 7.634143 7.592934 -13.440604 0
M  V30 7 C 6.551540 5.773759 -14.517999 0 CFG=1
M  V30 8 C 9.294876 6.270966 -10.025686 0
M  V30 9 C 11.014555 8.358716 -5.138411 0
M  V30 10 C 7.156653 4.816800 -10.142816 0
M  V30 11 C 6.195835 4.223979 -12.451791 0
M  V30 12 C 11.325372 9.009294 -6.483305 0
M  V30 13 C 6.571193 5.811886 -16.055271 0
M  V30 14 O 8.557264 2.601079 -16.530761 0
M  V30 15 F 11.775409 9.690264 -9.184795 0
M  V30 16 C 7.621991 4.849040 -16.674146 0 CFG=1
M  V30 17 C 6.385234 4.331416 -13.984905 0 CFG=2
M  V30 18 O 10.175408 7.498961 -8.045938 0
M  V30 19 C 13.651630 8.336354 -8.792530 0
M  V30 20 C 11.468560 7.570337 -9.962694 0
M  V30 21 C 8.387687 5.250622 -9.320882 0
M  V30 22 C 8.209818 6.223700 -18.763222 0
M  V30 23 C 7.484215 3.411767 -16.096432 0 CFG=2
M  V30 24 O 6.351925 4.562286 -20.313450 0
M  V30 25 C 7.644818 4.892270 -18.233971 0 CFG=2
M  V30 26 C 7.475614 3.402343 -14.553754 0
M  V30 27 C 10.484916 6.703922 -9.176115 0 CFG=2
M  V30 28 O 7.775403 6.329792 -14.065297 0
M  V30 29 C 12.121806 8.440113 -8.902083 0 CFG=1
M  V30 30 H 5.872189 3.628357 -18.538913 0
M  V30 31 H 5.555882 5.342497 -18.631542 0
M  V30 32 H 14.435891 9.325810 -10.197178 0
M  V30 33 H 11.986492 7.117540 -7.206495 0
M  V30 34 H 6.886572 3.448344 -21.951801 0
M  V30 35 H 7.918284 3.201966 -20.548333 0
M  V30 36 H 6.289055 2.503835 -20.589568 0
M  V30 37 H 8.015723 5.261833 -12.045325 0
M  V30 38 H 8.124226 3.590207 -11.652877 0
M  V30 39 H 8.575129 7.880895 -12.974950 0
M  V30 40 H 7.375452 8.350852 -14.180082 0
M  V30 41 H 6.879201 7.578420 -12.652502 0
M  V30 42 H 5.698942 6.364237 -14.176530 0
M  V30 43 H 8.732124 7.132178 -10.385000 0
M  V30 44 H 9.721732 5.803157 -10.911800 0
M  V30 45 H 10.975380 9.113703 -4.353619 0
M  V30 46 H 10.060498 7.832966 -5.185062 0
M  V30 47 H 11.775368 7.632865 -4.855023 0
M  V30 48 H 6.661009 3.986436 -9.642465 0
M  V30 49 H 6.431306 5.627422 -10.131393 0
M  V30 50 H 5.788599 3.243805 -12.205248 0
M  V30 51 H 5.429229 4.940048 -12.154623 0
M  V30 52 H 12.252576 9.577323 -6.399066 0
M  V30 53 H 10.535773 9.712555 -6.720423 0
M  V30 54 H 6.765781 6.834416 -16.375327 0
M  V30 55 H 5.567956 5.590248 -16.413158 0
M  V30 56 H 8.410284 1.717039 -16.229604 0
M  V30 57 H 8.597828 5.205405 -16.339636 0
M  V30 58 H 5.435378 3.990237 -14.385021 0
M  V30 59 H 13.930036 7.379304 -8.385021 0
M  V30 60 H 14.038854 9.116636 -8.135329 0
M  V30 61 H 10.927642 8.194161 -10.676034 0
M  V30 62 H 12.175327 6.986209 -10.542955 0
M  V30 63 H 8.995104 4.390228 -9.061832 0
M  V30 64 H 8.043962 5.665590 -8.372640 0
M  V30 65 H 7.554554 7.063670 -18.536288 0
M  V30 66 H 9.191276 6.429830 -18.336079 0
M  V30 67 H 8.334584 6.194075 -19.845749 0
M  V30 68 H 6.575453 2.936100 -16.456855 0
M  V30 69 H 8.353786 4.130521 -18.554931 0
M  V30 70 H 8.451996 3.714259 -14.179248 0
M  V30 71 H 7.317629 2.385782 -14.190352 0
M  V30 72 H 10.975390 5.814878 -8.785023 0
M  V30 END ATOM
M  V30 BEGIN BOND
M  V30 1 1 10 5
M  V30 2 1 11 5
M  V30 3 1 12 3
M  V30 4 1 12 9
M  V30 5 1 13 7
M  V30 6 1 16 13
M  V30 7 1 17 7
M  V30 8 1 17 11
M  V30 9 1 18 3
M  V30 10 1 19 2
M  V30 11 1 21 8
M  V30 12 1 21 10
M  V30 13 1 23 14
M  V30 14 1 23 16
M  V30 15 1 24 1
M  V30 16 1 24 4
M  V30 17 1 25 1
M  V30 18 1 25 16
M  V30 19 1 25 22
M  V30 20 1 26 17
M  V30 21 1 26 23
M  V30 22 1 27 8
M  V30 23 1 27 18
M  V30 24 1 27 20
M  V30 25 1 28 6
M  V30 26 1 28 7
M  V30 27 1 29 3
M  V30 28 1 29 15 CFG=3
M  V30 29 1 29 19
M  V30 30 1 29 20
M  V30 31 1 30 1
M  V30 32 1 31 1
M  V30 33 1 32 2
M  V30 34 1 3 33 CFG=1
M  V30 35 1 34 4
M  V30 36 1 35 4
M  V30 37 1 36 4
M  V30 38 1 37 5
M  V30 39 1 38 5
M  V30 40 1 39 6
M  V30 41 1 40 6
M  V30 42 1 41 6
M  V30 43 1 7 42 CFG=1
M  V30 44 1 43 8
M  V30 45 1 44 8
M  V30 46 1 45 9
M  V30 47 1 46 9
M  V30 48 1 47 9
M  V30 49 1 48 10
M  V30 50 1 49 10
M  V30 51 1 50 11
M  V30 52 1 51 11
M  V30 53 1 52 12
M  V30 54 1 53 12
M  V30 55 1 54 13
M  V30 56 1 55 13
M  V30 57 1 56 14
M  V30 58 1 16 57 CFG=1
M  V30 59 1 17 58 CFG=3
M  V30 60 1 59 19
M  V30 61 1 60 19
M  V30 62 1 61 20
M  V30 63 1 62 20
M  V30 64 1 63 21
M  V30 65 1 64 21
M  V30 66 1 65 22
M  V30 67 1 66 22
M  V30 68 1 67 22
M  V30 69 1 23 68 CFG=3
M  V30 70 1 25 69 CFG=3
M  V30 71 1 70 26
M  V30 72 1 71 26
M  V30 73 1 27 72 CFG=1
M  V30 END BOND
M  V30 END CTAB
M  END
>  <i_epik_Tot_Q>  (1) 
0

>  <i_epik_Tot_abs_Q>  (1) 
0

>  <i_i_glide_confnum>  (1) 
290

>  <i_i_glide_lignum>  (1) 
9

>  <i_i_glide_posenum>  (1) 
340

>  <i_i_glide_rotatable_bonds>  (1) 
14

>  <i_lp_mmshare_version>  (1) 
72125

>  <i_m_source_file_index>  (1) 
7

>  <i_f3d_flags>  (1) 
0

>  <num_sample>  (1) 
100

>  <b_lp_Chiralities_Consistent>  (1) 
1

>  <r_epik_Charging_Adjusted_Penalty>  (1) 
0

>  <r_epik_Ionization_Penalty>  (1) 
7.0602717257541721e-07

>  <r_epik_Ionization_Penalty_Charging>  (1) 
0

>  <r_epik_Ionization_Penalty_Neutral>  (1) 
7.0602717257541721e-07

>  <r_epik_State_Penalty>  (1) 
-0

>  <r_glide_ring_energy>  (1) 
0

>  <r_i_docking_score>  (1) 
-4.7537270651083281

>  <r_i_glide_ecoul>  (1) 
-6.1434038650079508

>  <r_i_glide_eff_state_penalty>  (1) 
-0

>  <r_i_glide_einternal>  (1) 
7.6508436314794324

>  <r_i_glide_emodel>  (1) 
-25.544898229581371

>  <r_i_glide_emodel_strain>  (1) 
0.72168049163798997

>  <r_i_glide_energy>  (1) 
-25.330421436905578

>  <r_i_glide_erotb>  (1) 
1.0157505286842679

>  <r_i_glide_esite>  (1) 
-0.0074875863924273867

>  <r_i_glide_evdw>  (1) 
-19.187017571897627

>  <r_i_glide_gscore>  (1) 
-4.7537270651083281

>  <r_i_glide_gscore_strain>  (1) 
0

>  <r_i_glide_hbond>  (1) 
-0.32000000000000001

>  <r_i_glide_ligand_efficiency>  (1) 
-0.16392162293476994

>  <r_i_glide_ligand_efficiency_ln>  (1) 
-1.0884829537922669

>  <r_i_glide_ligand_efficiency_sa>  (1) 
-0.50361916023622477

>  <r_i_glide_lipo>  (1) 
-2.3050866515959254

>  <r_i_glide_metal>  (1) 
-0

>  <r_i_glide_rewards>  (1) 
-1.2560418974581689

>  <r_lp_Energy>  (1) 
8.972643999999999

>  <r_lp_tautomer_probability>  (1) 
1

>  <s_epik_cmdline>  (1) 
J2VwaWtfcHl0aG9uJywgJy1waHQnLCAnMS4wJywgJy1waCcsICc3LjQnLCAnLXRuJywgJzgnLCAnLW1hJywgJzUwMCcsICctaW1hZScsICc8aW5maWxlLm1hZT4nLCAnLW9tYWUnLCAnPG91dGZpbGUubWFlPic=

>  <s_epik_input>  (1) 
W0NIM11PW0NIMl1bQ0BASF0oW0NIM10pW0NAQEhdKFtDSDJdW0NAQEhdMU9bQ0gzXSlbQ0BASF0oW09IXSlbQ0gyXVtDQEhdMVtDSDJdW0NIMl1bQ0gyXVtDSDJdW0NIMl1bQ0BASF0oW0NIMl0yKU9bQ0BIXShbQ0gyXVtDSDNdKVtDQEBdMihGKVtDSDJdW09IXQ==

>  <s_glide_docking_method>  (1) 
confgen

>  <s_i_glide_gridfile>  (1) 
gpcr_drd2_6luq_protein_autoprepared_prepared

>  <s_lp_Force_Field>  (1) 
S-OPLS

>  <s_lp_Variant>  (1) 
DiffSBDD_6-1

>  <s_m_source_file>  (1) 
generated_generic_title2_ligand_DiffSBDD_2026-06-23_prepared.sdf

>  <GenAI_Model>  (1) 
DiffSBDD

>  <Protein>  (1) 
generic_title2

$$$$
DiffSBDD_1
     RDKit          3D

  0  0  0  0  0  0  0  0  0  0999 V3000
M  V30 BEGIN CTAB
M  V30 COUNTS 73 75 0 0 1
M  V30 BEGIN ATOM
M  V30 1 F 8.975741 2.474688 -16.786109 0
M  V30 2 C 9.294851 6.455183 -9.140649 0
M  V30 3 C 9.548553 5.824216 -18.096830 0
M  V30 4 C 8.613364 3.399172 -17.686494 0
M  V30 5 C 8.229389 5.709056 -12.137011 0 CFG=1
M  V30 6 C 5.847327 5.279454 -19.131294 0
M  V30 7 F 9.934973 4.002947 -19.588207 0
M  V30 8 C 11.383832 7.530660 -6.879191 0
M  V30 9 C 7.017485 5.885147 -18.343267 0 CFG=1
M  V30 10 C 8.332602 6.511109 -18.788957 0
M  V30 11 C 9.303879 6.787090 -12.383064 0
M  V30 12 C 6.591853 6.338952 -16.903920 0 CFG=1
M  V30 13 C 5.965484 3.267733 -13.585382 0
M  V30 14 O 8.575250 8.766388 -11.176779 0
M  V30 15 C 7.041590 6.017585 -14.480853 0
M  V30 16 C 7.581253 5.058544 -13.386532 0 CFG=2
M  V30 17 C 10.072454 7.257102 -9.898352 0
M  V30 18 C 11.480731 7.669267 -9.467073 0
M  V30 19 N 7.372960 3.518099 -17.993566 0
M  V30 20 C 6.884062 2.032880 -13.621156 0
M  V30 21 O 8.332562 -1.209869 -16.785215 0
M  V30 22 O 5.194605 6.565781 -16.798465 0
M  V30 23 C 6.871386 1.374835 -14.983741 0
M  V30 24 C 9.717637 4.289248 -18.302570 0 CFG=1
M  V30 25 C 7.096385 -0.573206 -16.558604 0
M  V30 26 C 9.605539 7.801763 -11.257589 0 CFG=1
M  V30 27 C 7.100486 0.072201 -15.191219 0
M  V30 28 O 6.593935 7.122638 -14.175473 0
M  V30 29 C 7.089030 4.495869 -19.009905 0 CFG=1
M  V30 30 O 8.878324 4.635326 -11.478043 0
M  V30 31 C 9.995979 6.905569 -6.725584 0
M  V30 32 N 7.092114 5.569220 -15.756429 0
M  V30 33 C 11.531766 8.415136 -8.123245 0
M  V30 34 C 9.703152 5.864524 -7.808288 0
M  V30 35 O 6.500367 4.319450 -12.806407 0
M  V30 36 H 8.310255 6.190681 -9.487375 0
M  V30 37 H 10.458790 6.319507 -18.436965 0
M  V30 38 H 9.509981 5.993220 -17.021201 0
M  V30 39 H 7.438720 6.123597 -11.509373 0
M  V30 40 H 4.975757 4.911751 -18.604112 0
M  V30 41 H 5.628888 5.733037 -20.095212 0
M  V30 42 H 11.585666 8.137536 -5.996212 0
M  V30 43 H 12.140330 6.745376 -6.886978 0
M  V30 44 H 8.435357 6.423293 -19.872280 0
M  V30 45 H 8.324769 7.581338 -18.607689 0
M  V30 46 H 10.225355 6.324735 -12.737077 0
M  V30 47 H 8.956612 7.417702 -13.184990 0
M  V30 48 H 6.967908 7.348260 -16.772977 0
M  V30 49 H 5.775937 3.650003 -14.581340 0
M  V30 50 H 4.991302 2.995184 -13.184967 0
M  V30 51 H 7.913609 8.439411 -10.555089 0
M  V30 52 H 8.313810 4.407873 -13.866329 0
M  V30 53 H 12.116547 6.790868 -9.454485 0
M  V30 54 H 11.936288 8.323224 -10.210992 0
M  V30 55 H 6.609283 1.320391 -12.842262 0
M  V30 56 H 7.917554 2.307995 -13.416956 0
M  V30 57 H 8.352811 -1.967578 -16.208016 0
M  V30 58 H 5.023388 7.479374 -16.975411 0
M  V30 59 H 6.667804 2.016138 -15.827859 0
M  V30 60 H 10.646898 4.001293 -17.812399 0
M  V30 61 H 6.924907 0.170281 -17.337969 0
M  V30 62 H 6.290289 -1.305709 -16.615118 0
M  V30 63 H 10.426467 8.390214 -11.625376 0
M  V30 64 H 7.304123 -0.574512 -14.350959 0
M  V30 65 H 7.587823 4.305904 -19.959920 0
M  V30 66 H 8.230486 3.967187 -11.308476 0
M  V30 67 H 9.220904 7.673838 -6.710682 0
M  V30 68 H 9.953267 6.411222 -5.755052 0
M  V30 69 H 7.464213 4.649956 -15.936511 0
M  V30 70 H 10.770725 9.190402 -8.109781 0
M  V30 71 H 12.488003 8.933153 -8.055620 0
M  V30 72 H 8.864574 5.245802 -7.486595 0
M  V30 73 H 10.548533 5.190256 -7.949583 0
M  V30 END ATOM
M  V30 BEGIN BOND
M  V30 1 1 4 1
M  V30 2 1 9 6 CFG=3
M  V30 3 1 10 3
M  V30 4 1 10 9
M  V30 5 1 11 5
M  V30 6 1 12 9
M  V30 7 1 16 5
M  V30 8 1 16 15
M  V30 9 2 17 2
M  V30 10 1 18 17
M  V30 11 2 19 4
M  V30 12 1 20 13
M  V30 13 1 22 12
M  V30 14 1 23 20
M  V30 15 1 24 3
M  V30 16 1 24 4
M  V30 17 1 24 7
M  V30 18 1 25 21
M  V30 19 1 26 11
M  V30 20 1 26 14
M  V30 21 1 26 17
M  V30 22 2 27 23
M  V30 23 1 27 25
M  V30 24 2 28 15
M  V30 25 1 29 6
M  V30 26 1 29 9
M  V30 27 1 29 19
M  V30 28 1 30 5
M  V30 29 1 31 8
M  V30 30 1 32 12
M  V30 31 1 32 15
M  V30 32 1 33 8
M  V30 33 1 33 18
M  V30 34 1 34 2
M  V30 35 1 34 31
M  V30 36 1 35 13
M  V30 37 1 35 16
M  V30 38 1 36 2
M  V30 39 1 37 3
M  V30 40 1 38 3
M  V30 41 1 5 39 CFG=1
M  V30 42 1 40 6
M  V30 43 1 41 6
M  V30 44 1 42 8
M  V30 45 1 43 8
M  V30 46 1 44 10
M  V30 47 1 45 10
M  V30 48 1 46 11
M  V30 49 1 47 11
M  V30 50 1 12 48 CFG=1
M  V30 51 1 49 13
M  V30 52 1 50 13
M  V30 53 1 51 14
M  V30 54 1 16 52 CFG=3
M  V30 55 1 53 18
M  V30 56 1 54 18
M  V30 57 1 55 20
M  V30 58 1 56 20
M  V30 59 1 57 21
M  V30 60 1 58 22
M  V30 61 1 59 23
M  V30 62 1 24 60 CFG=1
M  V30 63 1 61 25
M  V30 64 1 62 25
M  V30 65 1 26 63 CFG=3
M  V30 66 1 64 27
M  V30 67 1 29 65 CFG=3
M  V30 68 1 66 30
M  V30 69 1 67 31
M  V30 70 1 68 31
M  V30 71 1 69 32
M  V30 72 1 70 33
M  V30 73 1 71 33
M  V30 74 1 72 34
M  V30 75 1 73 34
M  V30 END BOND
M  V30 END CTAB
M  END
>  <i_epik_Tot_Q>  (1) 
0

>  <i_epik_Tot_abs_Q>  (1) 
0

>  <i_i_glide_confnum>  (1) 
634

>  <i_i_glide_lignum>  (1) 
3

>  <i_i_glide_posenum>  (1) 
278

>  <i_i_glide_rotatable_bonds>  (1) 
17

>  <i_lp_mmshare_version>  (1) 
72125

>  <i_m_source_file_index>  (1) 
2

>  <i_f3d_flags>  (1) 
0

>  <num_sample>  (1) 
100

>  <b_lp_Chiralities_Consistent>  (1) 
1

>  <r_epik_Charging_Adjusted_Penalty>  (1) 
0

>  <r_epik_Ionization_Penalty>  (1) 
3.3646854675809213e-05

>  <r_epik_Ionization_Penalty_Charging>  (1) 
0

>  <r_epik_Ionization_Penalty_Neutral>  (1) 
3.3646854675809213e-05

>  <r_epik_State_Penalty>  (1) 
-0

>  <r_glide_ring_energy>  (1) 
0.00077298911874713633

>  <r_i_docking_score>  (1) 
-4.7511808102756143

>  <r_i_glide_ecoul>  (1) 
-10.29868454429181

>  <r_i_glide_eff_state_penalty>  (1) 
-0

>  <r_i_glide_einternal>  (1) 
12.645804963008436

>  <r_i_glide_emodel>  (1) 
-38.208987874100714

>  <r_i_glide_emodel_strain>  (1) 
5.9589315239644947

>  <r_i_glide_energy>  (1) 
-39.040740557552887

>  <r_i_glide_erotb>  (1) 
0.89639897310018468

>  <r_i_glide_esite>  (1) 
0

>  <r_i_glide_evdw>  (1) 
-28.742056013261077

>  <r_i_glide_gscore>  (1) 
-4.7511808102756143

>  <r_i_glide_gscore_strain>  (1) 
0.48973288099112366

>  <r_i_glide_hbond>  (1) 
-0.45599999999999996

>  <r_i_glide_ligand_efficiency>  (1) 
-0.13574802315073184

>  <r_i_glide_ligand_efficiency_ln>  (1) 
-1.0429896346322594

>  <r_i_glide_ligand_efficiency_sa>  (1) 
-0.44404078520305973

>  <r_i_glide_lipo>  (1) 
-1.7813221262294874

>  <r_i_glide_metal>  (1) 
-0

>  <r_i_glide_rewards>  (1) 
-0.91808505583060973

>  <r_lp_Energy>  (1) 
36.910070999999995

>  <r_lp_tautomer_probability>  (1) 
1

>  <s_epik_Chemistry_Notes>  (1) 
This compound has an imine and may undergo hydrolysis. This compound contains an acetal/aminal-like group ( X-CH(R)-Y where X, Y are N, S, or O) that may be acid/base labile, releasing an aldehyde.

>  <s_epik_cmdline>  (1) 
J2VwaWtfcHl0aG9uJywgJy1waHQnLCAnMS4wJywgJy1waCcsICc3LjQnLCAnLXRuJywgJzgnLCAnLW1hJywgJzUwMCcsICctaW1hZScsICc8aW5maWxlLm1hZT4nLCAnLW9tYWUnLCAnPG91dGZpbGUubWFlPic=

>  <s_epik_input>  (1) 
W0NIMl0xW0NIMl1bQ0BIXShGKUMoRik9TltDQEBIXShbQ0gyXTIpQzEyW0NAQEhdKFtPSF0pW05IXUMoPU8pW0NASF0oT1tDSDJdW0NIMl0vW0NIXT1bQ0hdL1tDSDJdW09IXSlbQ0BASF0oW09IXSlbQ0gyXVtDQEBIXShbT0hdKUMzPVtDSF1bQ0gyXVtDSDJdW0NIMl1bQ0gyXVtDSDJdMw==

>  <s_glide_docking_method>  (1) 
confgen

>  <s_i_glide_gridfile>  (1) 
gpcr_drd2_6luq_protein_autoprepared_prepared

>  <s_lp_Force_Field>  (1) 
S-OPLS

>  <s_lp_Variant>  (1) 
DiffSBDD_1-2

>  <s_m_source_file>  (1) 
generated_generic_title2_ligand_DiffSBDD_2026-06-23_prepared.sdf

>  <GenAI_Model>  (1) 
DiffSBDD

>  <Protein>  (1) 
generic_title2

$$$$
DiffSBDD_11
     RDKit          3D

  0  0  0  0  0  0  0  0  0  0999 V3000
M  V30 BEGIN CTAB
M  V30 COUNTS 43 43 0 0 1
M  V30 BEGIN ATOM
M  V30 1 C 7.117032 5.559070 -12.519643 0 CFG=1
M  V30 2 C 9.954902 8.392736 -6.621688 0
M  V30 3 C 8.456600 5.130748 -11.876899 0
M  V30 4 C 10.418534 8.200169 -9.885940 0
M  V30 5 C 11.849469 9.168638 -3.940108 0
M  V30 6 C 11.123721 7.453144 -8.739565 0 CFG=1
M  V30 7 C 12.294794 8.998840 -7.161625 0
M  V30 8 C 9.284323 7.429874 -10.559581 0
M  V30 9 C 12.329006 8.264153 -8.284608 0
M  V30 10 C 6.050531 4.464929 -12.360129 0
M  V30 11 N 6.610279 6.839284 -11.985025 0 CHG=1
M  V30 12 N 11.199956 9.096650 -6.326048 0
M  V30 13 C 11.218839 9.913965 -5.121276 0
M  V30 14 C 13.564875 8.189672 -9.167483 0
M  V30 15 C 10.218341 7.155763 -7.506484 0
M  V30 16 S 9.775410 6.390159 -11.958461 0
M  V30 17 H 7.286503 5.712100 -13.586439 0
M  V30 18 H 9.275530 9.075518 -7.133091 0
M  V30 19 H 9.464347 8.083568 -5.698628 0
M  V30 20 H 8.827691 4.245969 -12.396070 0
M  V30 21 H 8.312378 4.824773 -10.839871 0
M  V30 22 H 10.015213 9.131926 -9.487288 0
M  V30 23 H 11.133978 8.493121 -10.651747 0
M  V30 24 H 11.760284 9.746385 -3.019659 0
M  V30 25 H 11.375413 8.200894 -3.782311 0
M  V30 26 H 12.910157 8.987529 -4.115989 0
M  V30 27 H 11.462513 6.496688 -9.126106 0
M  V30 28 H 13.147681 9.573632 -6.827468 0
M  V30 29 H 8.766971 6.790236 -9.847749 0
M  V30 30 H 8.575410 8.166162 -10.930438 0
M  V30 31 H 6.394874 3.518539 -12.779085 0
M  V30 32 H 5.808798 4.290891 -11.310329 0
M  V30 33 H 5.127031 4.729973 -12.875962 0
M  V30 34 H 6.575424 6.845509 -10.965893 0
M  V30 35 H 7.243328 7.577390 -12.255534 0
M  V30 36 H 11.775381 10.829177 -5.321468 0
M  V30 37 H 10.207927 10.228336 -4.863828 0
M  V30 38 H 13.990927 7.190230 -9.191050 0
M  V30 39 H 13.348070 8.503158 -10.187839 0
M  V30 40 H 14.349981 8.834908 -8.785025 0
M  V30 41 H 9.272220 6.693167 -7.781266 0
M  V30 42 H 10.727020 6.412019 -6.891132 0
M  V30 43 H 5.690154 7.037752 -12.347940 0
M  V30 END ATOM
M  V30 BEGIN BOND
M  V30 1 1 3 1
M  V30 2 1 6 4
M  V30 3 1 8 4
M  V30 4 1 9 6
M  V30 5 2 9 7
M  V30 6 1 10 1
M  V30 7 1 11 1
M  V30 8 1 12 2
M  V30 9 1 12 7
M  V30 10 1 13 5
M  V30 11 1 13 12
M  V30 12 1 14 9
M  V30 13 1 15 2
M  V30 14 1 15 6
M  V30 15 1 16 3
M  V30 16 1 16 8
M  V30 17 1 1 17 CFG=3
M  V30 18 1 18 2
M  V30 19 1 19 2
M  V30 20 1 20 3
M  V30 21 1 21 3
M  V30 22 1 22 4
M  V30 23 1 23 4
M  V30 24 1 24 5
M  V30 25 1 25 5
M  V30 26 1 26 5
M  V30 27 1 6 27 CFG=3
M  V30 28 1 28 7
M  V30 29 1 29 8
M  V30 30 1 30 8
M  V30 31 1 31 10
M  V30 32 1 32 10
M  V30 33 1 33 10
M  V30 34 1 34 11
M  V30 35 1 35 11
M  V30 36 1 36 13
M  V30 37 1 37 13
M  V30 38 1 38 14
M  V30 39 1 39 14
M  V30 40 1 40 14
M  V30 41 1 41 15
M  V30 42 1 42 15
M  V30 43 1 43 11
M  V30 END BOND
M  V30 END CTAB
M  END
>  <i_epik_Tot_Q>  (1) 
1

>  <i_epik_Tot_abs_Q>  (1) 
1

>  <i_i_glide_confnum>  (1) 
117

>  <i_i_glide_lignum>  (1) 
23

>  <i_i_glide_posenum>  (1) 
379

>  <i_i_glide_rotatable_bonds>  (1) 
6

>  <i_lp_mmshare_version>  (1) 
72125

>  <i_m_source_file_index>  (1) 
12

>  <i_f3d_flags>  (1) 
0

>  <num_sample>  (1) 
100

>  <b_lp_Chiralities_Consistent>  (1) 
1

>  <r_epik_Charging_Adjusted_Penalty>  (1) 
1.9642440234168317

>  <r_epik_Ionization_Penalty>  (1) 
0.98935146828666498

>  <r_epik_Ionization_Penalty_Charging>  (1) 
0.98585147642448279

>  <r_epik_Ionization_Penalty_Neutral>  (1) 
0.0034999918621821963

>  <r_epik_State_Penalty>  (1) 
0.9783925469923489

>  <r_glide_ring_energy>  (1) 
0.56190882101019335

>  <r_i_docking_score>  (1) 
-4.7422475832667397

>  <r_i_glide_ecoul>  (1) 
-5.7356052335383731

>  <r_i_glide_eff_state_penalty>  (1) 
0.9783925469923489

>  <r_i_glide_einternal>  (1) 
4.92912144199226

>  <r_i_glide_emodel>  (1) 
-40.278589953516295

>  <r_i_glide_emodel_strain>  (1) 
0.6442490419698288

>  <r_i_glide_energy>  (1) 
-28.827586398694031

>  <r_i_glide_erotb>  (1) 
1.1721704271113136

>  <r_i_glide_esite>  (1) 
-0.10000000000000001

>  <r_i_glide_evdw>  (1) 
-23.091981165155659

>  <r_i_glide_gscore>  (1) 
-5.7206401302590884

>  <r_i_glide_gscore_strain>  (1) 
0

>  <r_i_glide_hbond>  (1) 
-0.18128079686818444

>  <r_i_glide_ligand_efficiency>  (1) 
-0.29639047395417123

>  <r_i_glide_ligand_efficiency_ln>  (1) 
-1.2570274504906205

>  <r_i_glide_ligand_efficiency_sa>  (1) 
-0.74685719424635699

>  <r_i_glide_lipo>  (1) 
-1.5945971256584162

>  <r_i_glide_metal>  (1) 
-0

>  <r_i_glide_rewards>  (1) 
-3.0019927915552618

>  <r_lp_Energy>  (1) 
12.336442

>  <s_epik_Chemistry_Notes>  (1) 
This compound has an imine and may undergo hydrolysis.

>  <s_epik_cmdline>  (1) 
J2VwaWtfcHl0aG9uJywgJy1waHQnLCAnMS4wJywgJy1waCcsICc3LjQnLCAnLXRuJywgJzgnLCAnLW1hJywgJzUwMCcsICctaW1hZScsICc8aW5maWxlLm1hZT4nLCAnLW9tYWUnLCAnPG91dGZpbGUubWFlPic=

>  <s_epik_input>  (1) 
W0NIM11bQ0BASF0oW05IMl0pW0NIMl1TW0NIMl1bQ0gyXVtDQEhdMUMoW0NIM10pPVtDSF1OKFtDSDJdW0NIMl0xKVtDSDJdW0NIM10=

>  <s_glide_docking_method>  (1) 
confgen

>  <s_i_glide_gridfile>  (1) 
gpcr_drd2_6luq_protein_autoprepared_prepared

>  <s_lp_Force_Field>  (1) 
S-OPLS

>  <s_lp_Variant>  (1) 
DiffSBDD_11-3

>  <s_m_source_file>  (1) 
generated_generic_title2_ligand_DiffSBDD_2026-06-23_prepared.sdf

>  <GenAI_Model>  (1) 
DiffSBDD

>  <Protein>  (1) 
generic_title2

$$$$
DiffSBDD_94
     RDKit          3D

  0  0  0  0  0  0  0  0  0  0999 V3000
M  V30 BEGIN CTAB
M  V30 COUNTS 65 69 0 0 1
M  V30 BEGIN ATOM
M  V30 1 C 7.590240 7.375061 -12.758588 0
M  V30 2 C 9.849246 5.635775 -9.376104 0
M  V30 3 O 13.468431 9.590226 -5.185092 0
M  V30 4 C 8.493951 6.616754 -11.770086 0
M  V30 5 C 12.178575 9.197509 -5.575623 0 CFG=1
M  V30 6 N 6.846722 2.706504 -18.580358 0
M  V30 7 C 6.714306 1.585685 -17.823611 0
M  V30 8 C 6.517314 6.472126 -13.395068 0 CFG=2
M  V30 9 C 7.886949 3.772448 -16.773271 0
M  V30 10 C 11.628598 8.147053 -4.650276 0 CFG=1
M  V30 11 Cl 4.975410 7.014137 -11.185060 0
M  V30 12 C 11.108486 9.579471 -4.598463 0
M  V30 13 C 8.553854 5.046661 -16.265403 0 CFG=2
M  V30 14 C 8.095308 4.840185 -8.707593 0
M  V30 15 C 8.768556 4.807518 -10.087642 0 CFG=1
M  V30 16 C 5.754815 5.812707 -12.248482 0 CFG=2
M  V30 17 C 10.586244 6.961750 -6.745495 0 CFG=1
M  V30 18 C 9.873578 4.791380 -15.521858 0
M  V30 19 C 7.162403 1.506881 -16.495888 0
M  V30 20 O 6.172555 3.990222 -10.787208 0
M  V30 21 N 7.427614 3.803977 -18.053254 0
M  V30 22 N 8.847457 6.056211 -8.421687 0 CFG=1 CHG=1
M  V30 23 C 10.890035 6.944154 -5.221630 0
M  V30 24 N 7.885466 5.453776 -11.078869 0
M  V30 25 F 12.399488 7.798722 -3.553600 0
M  V30 26 C 9.270980 6.199708 -7.016186 0
M  V30 27 C 7.770650 2.638317 -15.950249 0
M  V30 28 C 11.917556 9.181462 -7.067473 0
M  V30 29 O 9.809297 8.758759 -8.156868 0
M  V30 30 C 6.627632 4.998846 -11.318297 0
M  V30 31 C 7.610285 5.990265 -15.491869 0
M  V30 32 C 10.680916 8.344878 -7.396693 0
M  V30 33 N 7.087823 5.431238 -14.261182 0
M  V30 34 H 8.175417 7.931026 -13.483397 0
M  V30 35 H 7.096302 8.172426 -12.204105 0
M  V30 36 H 10.347793 6.437704 -9.917477 0
M  V30 37 H 10.575409 5.016541 -8.847688 0
M  V30 38 H 13.603696 9.296820 -4.294994 0
M  V30 39 H 8.837208 7.363797 -11.057629 0
M  V30 40 H 9.369942 6.250173 -12.307980 0
M  V30 41 H 6.238614 0.738401 -18.294854 0
M  V30 42 H 5.822728 7.078789 -13.979087 0
M  V30 43 H 11.378573 10.178599 -3.732088 0
M  V30 44 H 10.175415 9.855895 -5.072989 0
M  V30 45 H 8.846350 5.593210 -17.162962 0
M  V30 46 H 8.330037 3.992272 -8.059576 0
M  V30 47 H 7.036750 5.063380 -8.713028 0
M  V30 48 H 9.135045 3.832463 -10.403128 0
M  V30 49 H 4.975452 5.163840 -12.641187 0
M  V30 50 H 11.393863 6.402773 -7.219844 0
M  V30 51 H 10.508052 4.099419 -16.077098 0
M  V30 52 H 10.442206 5.710045 -15.398147 0
M  V30 53 H 9.701382 4.390256 -14.524263 0
M  V30 54 H 7.042415 0.602830 -15.918456 0
M  V30 55 H 9.981490 6.790107 -4.644213 0
M  V30 56 H 11.499993 6.061089 -5.022621 0
M  V30 57 H 9.459565 5.190229 -6.696885 0
M  V30 58 H 8.440176 6.592826 -6.428727 0
M  V30 59 H 8.138950 2.639427 -14.935003 0
M  V30 60 H 11.775414 10.203433 -7.412505 0
M  V30 61 H 12.780907 8.762388 -7.584407 0
M  V30 62 H 6.789025 6.329410 -16.124858 0
M  V30 63 H 8.175379 6.856754 -15.185030 0
M  V30 64 H 6.399409 4.725885 -14.487676 0
M  V30 65 H 8.322837 6.865115 -8.762956 0
M  V30 END ATOM
M  V30 BEGIN BOND
M  V30 1 1 4 1
M  V30 2 1 5 3 CFG=3
M  V30 3 1 7 6
M  V30 4 1 8 1
M  V30 5 1 10 5
M  V30 6 1 12 5
M  V30 7 1 12 10
M  V30 8 1 13 9
M  V30 9 1 15 2
M  V30 10 1 15 14
M  V30 11 1 16 8
M  V30 12 1 16 11
M  V30 13 1 18 13
M  V30 14 2 19 7
M  V30 15 2 21 6
M  V30 16 1 21 9
M  V30 17 1 22 2
M  V30 18 1 22 14
M  V30 19 1 23 10
M  V30 20 1 23 17
M  V30 21 1 24 4
M  V30 22 1 24 15
M  V30 23 1 10 25 CFG=1
M  V30 24 1 26 17
M  V30 25 1 26 22
M  V30 26 2 27 9
M  V30 27 1 27 19
M  V30 28 1 28 5
M  V30 29 1 30 16
M  V30 30 2 30 20
M  V30 31 1 30 24
M  V30 32 1 31 13
M  V30 33 1 32 17
M  V30 34 1 32 28
M  V30 35 2 32 29
M  V30 36 1 33 8
M  V30 37 1 33 31
M  V30 38 1 34 1
M  V30 39 1 35 1
M  V30 40 1 36 2
M  V30 41 1 37 2
M  V30 42 1 38 3
M  V30 43 1 39 4
M  V30 44 1 40 4
M  V30 45 1 41 7
M  V30 46 1 8 42 CFG=3
M  V30 47 1 43 12
M  V30 48 1 44 12
M  V30 49 1 13 45 CFG=3
M  V30 50 1 46 14
M  V30 51 1 47 14
M  V30 52 1 15 48 CFG=3
M  V30 53 1 16 49 CFG=3
M  V30 54 1 17 50 CFG=3
M  V30 55 1 51 18
M  V30 56 1 52 18
M  V30 57 1 53 18
M  V30 58 1 54 19
M  V30 59 1 55 23
M  V30 60 1 56 23
M  V30 61 1 57 26
M  V30 62 1 58 26
M  V30 63 1 59 27
M  V30 64 1 60 28
M  V30 65 1 61 28
M  V30 66 1 62 31
M  V30 67 1 63 31
M  V30 68 1 64 33
M  V30 69 1 22 65 CFG=3
M  V30 END BOND
M  V30 END CTAB
M  END
>  <i_epik_Tot_Q>  (1) 
1

>  <i_epik_Tot_abs_Q>  (1) 
1

>  <i_i_glide_confnum>  (1) 
171

>  <i_i_glide_lignum>  (1) 
181

>  <i_i_glide_posenum>  (1) 
115

>  <i_i_glide_rotatable_bonds>  (1) 
8

>  <i_lp_mmshare_version>  (1) 
72125

>  <i_m_source_file_index>  (1) 
95

>  <i_f3d_flags>  (1) 
0

>  <num_sample>  (1) 
100

>  <b_lp_Chiralities_Consistent>  (1) 
1

>  <r_epik_Charging_Adjusted_Penalty>  (1) 
1.4532026091556733

>  <r_epik_Ionization_Penalty>  (1) 
1.1658176113502041

>  <r_epik_Ionization_Penalty_Charging>  (1) 
0.22723193656236854

>  <r_epik_Ionization_Penalty_Neutral>  (1) 
0.93858567478783561

>  <r_epik_State_Penalty>  (1) 
1.2259706725933048

>  <r_glide_ring_energy>  (1) 
1.3165782718524921

>  <r_i_docking_score>  (1) 
-4.7349955341917296

>  <r_i_glide_ecoul>  (1) 
-4.0731002970766763

>  <r_i_glide_eff_state_penalty>  (1) 
1.2259706725933048

>  <r_i_glide_einternal>  (1) 
5.9048859622203693

>  <r_i_glide_emodel>  (1) 
-38.371363393187636

>  <r_i_glide_emodel_strain>  (1) 
2.2050592782647556

>  <r_i_glide_energy>  (1) 
-27.653149509540704

>  <r_i_glide_erotb>  (1) 
0.36821637204093338

>  <r_i_glide_esite>  (1) 
-0.17470587347194633

>  <r_i_glide_evdw>  (1) 
-23.580049212464026

>  <r_i_glide_gscore>  (1) 
-5.9609662067850344

>  <r_i_glide_gscore_strain>  (1) 
0

>  <r_i_glide_hbond>  (1) 
-0.20000000000000001

>  <r_i_glide_ligand_efficiency>  (1) 
-0.14348471315732514

>  <r_i_glide_ligand_efficiency_ln>  (1) 
-1.0530384903094592

>  <r_i_glide_ligand_efficiency_sa>  (1) 
-0.46023214328172429

>  <r_i_glide_lipo>  (1) 
-2.0478770464380665

>  <r_i_glide_metal>  (1) 
-0

>  <r_i_glide_rewards>  (1) 
-2.1166321537312531

>  <r_lp_Energy>  (1) 
64.001239999999996

>  <s_epik_cmdline>  (1) 
J2VwaWtfcHl0aG9uJywgJy1waHQnLCAnMS4wJywgJy1waCcsICc3LjQnLCAnLXRuJywgJzgnLCAnLW1hJywgJzUwMCcsICctaW1hZScsICc8aW5maWxlLm1hZT4nLCAnLW9tYWUnLCAnPG91dGZpbGUubWFlPic=

>  <s_epik_input>  (1) 
W2NIXTFbY0hdW2NIXW5uYzFbQ0BIXShbQ0gzXSlbQ0gyXVtOSF1bQ0BASF0yW0NIMl1bQ0gyXU4oQyg9TylbQ0BIXTJDbClbQ0hdM1tDSDJdTihbQ0gyXTMpW0NIMl1bQ0BASF0oQyg9TylbQ0gyXTQpW0NIMl1bQ0BdKEYpKFtDSDJdNSlbQ0BAXTQ1W09IXQ==

>  <s_glide_docking_method>  (1) 
confgen

>  <s_i_glide_gridfile>  (1) 
gpcr_drd2_6luq_protein_autoprepared_prepared

>  <s_lp_Force_Field>  (1) 
S-OPLS

>  <s_lp_Variant>  (1) 
DiffSBDD_94-4

>  <s_m_source_file>  (1) 
generated_generic_title2_ligand_DiffSBDD_2026-06-23_prepared.sdf

>  <GenAI_Model>  (1) 
DiffSBDD

>  <Protein>  (1) 
generic_title2

$$$$
DiffSBDD_8
     RDKit          3D

  0  0  0  0  0  0  0  0  0  0999 V3000
M  V30 BEGIN CTAB
M  V30 COUNTS 62 64 0 0 1
M  V30 BEGIN ATOM
M  V30 1 C 10.324589 7.983011 -9.706334 0
M  V30 2 O 11.321545 8.597055 -5.329830 0
M  V30 3 C 6.084177 6.564723 -16.313455 0
M  V30 4 N 12.272390 8.790285 -7.333076 0
M  V30 5 C 7.905034 3.176636 -13.818317 0 CFG=2
M  V30 6 C 7.431990 6.053052 -13.879895 0
M  V30 7 N 8.973314 7.977281 -6.784191 0 CHG=1
M  V30 8 C 7.272828 0.617483 -16.280563 0
M  V30 9 C 5.511401 0.750571 -14.427540 0
M  V30 10 O 7.649850 1.068679 -13.065467 0
M  V30 11 C 6.878890 5.414523 -16.187315 0
M  V30 12 C 6.374643 0.535158 -17.519286 0
M  V30 13 O 8.284090 3.995604 -14.872646 0
M  V30 14 S 8.648091 7.398462 -11.728285 0
M  V30 15 C 8.919039 3.432683 -12.682862 0
M  V30 16 C 8.187557 5.807193 -12.540642 0 CFG=2
M  V30 17 N 9.807776 6.904992 -10.545811 0 CFG=2 CHG=1
M  V30 18 F 5.441457 6.817753 -17.476795 0
M  V30 19 C 8.714951 0.166670 -13.069989 0
M  V30 20 C 9.364750 6.188090 -9.342828 0
M  V30 21 C 9.399264 4.873791 -12.694305 0
M  V30 22 C 10.435174 6.964999 -8.567259 0 CFG=2
M  V30 23 C 6.683193 1.474455 -15.142479 0 CFG=1
M  V30 24 N 7.802767 1.819414 -14.260299 0
M  V30 25 C 11.345184 8.292954 -6.517919 0
M  V30 26 C 5.949068 7.447390 -15.230615 0
M  V30 27 C 6.617610 7.190227 -14.019503 0
M  V30 28 C 7.546038 5.143224 -14.978789 0
M  V30 29 C 10.268180 7.351150 -7.071918 0 CFG=1
M  V30 30 H 11.277785 8.379156 -10.058262 0
M  V30 31 H 9.598386 8.775572 -9.518259 0
M  V30 32 H 12.969921 9.424039 -6.966511 0
M  V30 33 H 12.272442 8.552609 -8.312086 0
M  V30 34 H 6.907616 3.462139 -13.476059 0
M  V30 35 H 8.926059 8.159143 -5.791360 0
M  V30 36 H 8.899263 8.853898 -7.279733 0
M  V30 37 H 8.232397 1.034350 -16.590969 0
M  V30 38 H 7.487331 -0.390208 -15.922456 0
M  V30 39 H 4.692107 0.549986 -15.115611 0
M  V30 40 H 5.818000 -0.219929 -14.031564 0
M  V30 41 H 5.112215 1.338128 -13.599928 0
M  V30 42 H 6.970245 4.730375 -17.018575 0
M  V30 43 H 6.844327 -0.076714 -18.289176 0
M  V30 44 H 5.408874 0.086629 -17.290595 0
M  V30 45 H 6.197641 1.523678 -17.942572 0
M  V30 46 H 8.456363 3.189649 -11.728449 0
M  V30 47 H 9.779084 2.785633 -12.783979 0
M  V30 48 H 7.479994 5.342107 -11.852993 0
M  V30 49 H 8.579310 -0.409773 -12.157892 0
M  V30 50 H 8.698871 -0.451886 -13.966647 0
M  V30 51 H 9.688640 0.647235 -13.012053 0
M  V30 52 H 8.349196 6.389990 -9.019608 0
M  V30 53 H 9.542307 5.113933 -9.389700 0
M  V30 54 H 10.107077 4.916878 -11.876572 0
M  V30 55 H 9.990857 5.126954 -13.578123 0
M  V30 56 H 11.370230 6.414802 -8.682032 0
M  V30 57 H 6.327879 2.404340 -15.583267 0
M  V30 58 H 5.331078 8.328801 -15.328152 0
M  V30 59 H 6.506956 7.875419 -13.197682 0
M  V30 60 H 10.313831 6.435699 -6.479172 0
M  V30 61 H 10.587072 6.404676 -10.947064 0
M  V30 62 H 8.174931 7.400682 -7.045175 0
M  V30 END ATOM
M  V30 BEGIN BOND
M  V30 1 2 11 3
M  V30 2 1 12 8
M  V30 3 1 13 5
M  V30 4 1 15 5
M  V30 5 1 16 6
M  V30 6 1 16 14
M  V30 7 1 17 1
M  V30 8 1 17 14
M  V30 9 1 18 3
M  V30 10 1 19 10
M  V30 11 1 20 17
M  V30 12 1 21 15
M  V30 13 1 21 16
M  V30 14 1 22 1
M  V30 15 1 22 20
M  V30 16 1 23 8
M  V30 17 1 23 9
M  V30 18 1 24 5
M  V30 19 1 24 10
M  V30 20 1 24 23
M  V30 21 2 25 2
M  V30 22 1 25 4
M  V30 23 1 26 3
M  V30 24 1 27 6
M  V30 25 2 27 26
M  V30 26 2 28 6
M  V30 27 1 28 11
M  V30 28 1 28 13
M  V30 29 1 29 7
M  V30 30 1 29 22
M  V30 31 1 29 25
M  V30 32 1 30 1
M  V30 33 1 31 1
M  V30 34 1 32 4
M  V30 35 1 33 4
M  V30 36 1 5 34 CFG=1
M  V30 37 1 35 7
M  V30 38 1 36 7
M  V30 39 1 37 8
M  V30 40 1 38 8
M  V30 41 1 39 9
M  V30 42 1 40 9
M  V30 43 1 41 9
M  V30 44 1 42 11
M  V30 45 1 43 12
M  V30 46 1 44 12
M  V30 47 1 45 12
M  V30 48 1 46 15
M  V30 49 1 47 15
M  V30 50 1 16 48 CFG=1
M  V30 51 1 49 19
M  V30 52 1 50 19
M  V30 53 1 51 19
M  V30 54 1 52 20
M  V30 55 1 53 20
M  V30 56 1 54 21
M  V30 57 1 55 21
M  V30 58 1 22 56 CFG=1
M  V30 59 1 23 57 CFG=3
M  V30 60 1 58 26
M  V30 61 1 59 27
M  V30 62 1 29 60 CFG=1
M  V30 63 1 17 61 CFG=3
M  V30 64 1 62 7
M  V30 END BOND
M  V30 END CTAB
M  END
>  <i_epik_Tot_Q>  (1) 
2

>  <i_epik_Tot_abs_Q>  (1) 
2

>  <i_i_glide_confnum>  (1) 
129

>  <i_i_glide_lignum>  (1) 
14

>  <i_i_glide_posenum>  (1) 
347

>  <i_i_glide_rotatable_bonds>  (1) 
8

>  <i_lp_mmshare_version>  (1) 
72125

>  <i_m_source_file_index>  (1) 
9

>  <i_f3d_flags>  (1) 
0

>  <num_sample>  (1) 
100

>  <b_lp_Chiralities_Consistent>  (1) 
1

>  <r_epik_Charging_Adjusted_Penalty>  (1) 
1.8967099088143093

>  <r_epik_Ionization_Penalty>  (1) 
0.97230814562840162

>  <r_epik_Ionization_Penalty_Charging>  (1) 
0.97206898566559774

>  <r_epik_Ionization_Penalty_Neutral>  (1) 
0.00023915996280393024

>  <r_epik_State_Penalty>  (1) 
0.9246409231487116

>  <r_glide_ring_energy>  (1) 
0

>  <r_i_docking_score>  (1) 
-4.7305831578545519

>  <r_i_glide_ecoul>  (1) 
-4.7726871270224311

>  <r_i_glide_eff_state_penalty>  (1) 
0.9246409231487116

>  <r_i_glide_einternal>  (1) 
5.6240260694686661

>  <r_i_glide_emodel>  (1) 
-43.61312004594506

>  <r_i_glide_emodel_strain>  (1) 
3.9336078556208847

>  <r_i_glide_energy>  (1) 
-29.796940689338932

>  <r_i_glide_erotb>  (1) 
0.54076123851304858

>  <r_i_glide_esite>  (1) 
-0.15320632854171481

>  <r_i_glide_evdw>  (1) 
-25.024253562316503

>  <r_i_glide_gscore>  (1) 
-5.6552240810032632

>  <r_i_glide_gscore_strain>  (1) 
0

>  <r_i_glide_hbond>  (1) 
-0.18993510399158697

>  <r_i_glide_ligand_efficiency>  (1) 
-0.16312355716739835

>  <r_i_glide_ligand_efficiency_ln>  (1) 
-1.083183585910003

>  <r_i_glide_ligand_efficiency_sa>  (1) 
-0.50116724935112522

>  <r_i_glide_lipo>  (1) 
-1.6723355937166129

>  <r_i_glide_metal>  (1) 
-0

>  <r_i_glide_rewards>  (1) 
-2.2133925460972068

>  <r_lp_Energy>  (1) 
57.067200999999997

>  <r_lp_tautomer_probability>  (1) 
1

>  <s_epik_Chemistry_Notes>  (1) 
This compound contains an acetal/aminal-like group ( X-CH(R)-Y where X, Y are N, S, or O) that may be acid/base labile, releasing an aldehyde. This compound has a N-S or N-O group and may undergo hydrolysis at high or low pH.

>  <s_epik_cmdline>  (1) 
J2VwaWtfcHl0aG9uJywgJy1waHQnLCAnMS4wJywgJy1waCcsICc3LjQnLCAnLXRuJywgJzgnLCAnLW1hJywgJzUwMCcsICctaW1hZScsICc8aW5maWxlLm1hZT4nLCAnLW9tYWUnLCAnPG91dGZpbGUubWFlPic=

>  <s_epik_input>  (1) 
Tz1DKFtOSDJdKVtDQEBIXShbTkgyXSlbQ0hdKFtDSDJdMSlbQ0gyXU4xU1tDQEBIXTJbQ0gyXVtDSDJdW0NASF0oTihPW0NIM10pW0NASF0oW0NIM10pW0NIMl1bQ0gzXSlPYyhjMjMpW2NIXWMoRilbY0hdW2NIXTM=

>  <s_glide_docking_method>  (1) 
confgen

>  <s_i_glide_gridfile>  (1) 
gpcr_drd2_6luq_protein_autoprepared_prepared

>  <s_lp_Force_Field>  (1) 
S-OPLS

>  <s_lp_Variant>  (1) 
DiffSBDD_8-4

>  <s_m_source_file>  (1) 
generated_generic_title2_ligand_DiffSBDD_2026-06-23_prepared.sdf

>  <GenAI_Model>  (1) 
DiffSBDD

>  <Protein>  (1) 
generic_title2

$$$$
DiffSBDD_78
     RDKit          3D

  0  0  0  0  0  0  0  0  0  0999 V3000
M  V30 BEGIN CTAB
M  V30 COUNTS 80 84 0 0 1
M  V30 BEGIN ATOM
M  V30 1 C 10.222549 8.687607 -7.274549 0 CFG=2
M  V30 2 C 11.659329 9.190492 -7.537532 0
M  V30 3 C 5.559629 4.057346 -12.528826 0 CFG=1
M  V30 4 C 7.062059 3.211119 -14.659492 0 CFG=2
M  V30 5 C 10.139722 7.991787 -5.930118 0
M  V30 6 N 8.223065 1.619536 -16.197130 0
M  V30 7 C 7.422268 2.630408 -13.259123 0 CFG=1
M  V30 8 C 7.904186 5.013165 -12.525260 0 CFG=1
M  V30 9 N 9.775428 7.651447 -8.228865 0 CFG=2 CHG=1
M  V30 10 C 10.340549 6.377496 -7.739851 0
M  V30 11 N 8.848026 6.102304 -12.934747 0 CFG=2 CHG=1
M  V30 12 C 5.839423 6.467398 -13.264132 0
M  V30 13 C 8.043981 3.027058 -15.825199 0
M  V30 14 C 7.223439 -0.493349 -16.954828 0
M  V30 15 O 6.718912 4.606760 -14.542390 0
M  V30 16 C 10.175426 5.623883 -13.356355 0
M  V30 17 C 6.086235 -1.096880 -17.801783 0 CFG=1
M  V30 18 C 5.821671 3.445897 -11.173883 0
M  V30 19 C 6.496303 5.072615 -13.204621 0 CFG=2
M  V30 20 F 4.917147 -0.733341 -17.269097 0
M  V30 21 C 10.347574 6.508541 -6.213433 0
M  V30 22 C 5.375415 6.991904 -11.897021 0
M  V30 23 O 7.289022 1.441611 -18.338114 0
M  V30 24 C 8.458914 3.541014 -12.602202 0
M  V30 25 C 6.162185 -0.530145 -19.229391 0 CFG=1
M  V30 26 C 9.409947 6.812261 -10.544823 0
M  V30 27 C 7.146092 1.046408 -17.007592 0 CFG=2
M  V30 28 C 9.935233 7.955746 -9.672268 0
M  V30 29 C 8.989040 7.238791 -11.971442 0
M  V30 30 C 6.110601 -2.634313 -17.790504 0
M  V30 31 C 6.236362 1.006225 -19.197951 0
M  V30 32 C 6.131869 2.660313 -12.463311 0 CFG=1
M  V30 33 F 7.235111 -1.004151 -19.867787 0
M  V30 34 H 9.497490 9.499654 -7.258890 0
M  V30 35 H 11.952170 9.913281 -6.775131 0
M  V30 36 H 12.389115 8.380513 -7.511192 0
M  V30 37 H 11.760805 9.689458 -8.500762 0
M  V30 38 H 4.530009 4.095807 -12.874225 0
M  V30 39 H 6.175410 2.688231 -14.968253 0
M  V30 40 H 9.118556 8.126008 -5.585096 0
M  V30 41 H 10.815920 8.396281 -5.176194 0
M  V30 42 H 9.081681 1.528673 -16.731546 0
M  V30 43 H 7.783228 1.602878 -13.327798 0
M  V30 44 H 7.713261 5.205630 -11.482712 0
M  V30 45 H 9.769136 5.510397 -8.073645 0
M  V30 46 H 11.362826 6.273379 -8.105156 0
M  V30 47 H 6.511511 7.187190 -13.730698 0
M  V30 48 H 4.975471 6.416438 -13.925498 0
M  V30 49 H 8.986226 3.500927 -15.585223 0
M  V30 50 H 7.670256 3.577561 -16.689519 0
M  V30 51 H 8.198664 -0.817436 -17.321813 0
M  V30 52 H 7.139635 -0.809762 -15.914733 0
M  V30 53 H 10.575432 5.019172 -12.546572 0
M  V30 54 H 10.118131 5.046560 -14.278709 0
M  V30 55 H 10.908241 6.406513 -13.536351 0
M  V30 56 H 6.643211 3.778035 -10.554796 0
M  V30 57 H 4.975413 3.190307 -10.551963 0
M  V30 58 H 9.502640 5.990241 -5.768040 0
M  V30 59 H 11.267297 6.117564 -5.776145 0
M  V30 60 H 4.999857 8.013428 -11.963498 0
M  V30 61 H 4.591597 6.378230 -11.455995 0
M  V30 62 H 6.188076 6.974119 -11.185122 0
M  V30 63 H 8.715265 3.190235 -11.602881 0
M  V30 64 H 9.356738 3.377076 -13.184791 0
M  V30 65 H 5.300105 -0.852852 -19.815309 0
M  V30 66 H 8.556713 6.382899 -10.026015 0
M  V30 67 H 10.165951 6.029692 -10.581647 0
M  V30 68 H 6.175199 1.380900 -16.644102 0
M  V30 69 H 10.976447 8.148239 -9.929911 0
M  V30 70 H 9.370452 8.865964 -9.877322 0
M  V30 71 H 9.718839 7.943951 -12.371389 0
M  V30 72 H 8.063164 7.809164 -11.925517 0
M  V30 73 H 7.062999 -3.022953 -18.152544 0
M  V30 74 H 5.957722 -3.023965 -16.785071 0
M  V30 75 H 5.321013 -3.047893 -18.418113 0
M  V30 76 H 5.289481 1.429190 -18.859846 0
M  V30 77 H 6.412553 1.391924 -20.201969 0
M  V30 78 H 5.448098 1.873824 -12.784996 0
M  V30 79 H 8.771732 7.574575 -8.093095 0
M  V30 80 H 8.443483 6.499346 -13.772316 0
M  V30 END ATOM
M  V30 BEGIN BOND
M  V30 1 1 2 1
M  V30 2 1 5 1
M  V30 3 1 7 4
M  V30 4 1 9 1
M  V30 5 1 10 9
M  V30 6 1 11 8
M  V30 7 1 13 4
M  V30 8 1 13 6
M  V30 9 1 15 4
M  V30 10 1 16 11
M  V30 11 1 17 14
M  V30 12 1 18 3
M  V30 13 1 19 3
M  V30 14 1 19 8
M  V30 15 1 19 12 CFG=3
M  V30 16 1 19 15
M  V30 17 1 17 20 CFG=1
M  V30 18 1 21 5
M  V30 19 1 21 10
M  V30 20 1 22 12
M  V30 21 1 24 7
M  V30 22 1 24 8
M  V30 23 1 25 17
M  V30 24 1 27 6
M  V30 25 1 27 14
M  V30 26 1 27 23
M  V30 27 1 28 9
M  V30 28 1 28 26
M  V30 29 1 29 11
M  V30 30 1 29 26
M  V30 31 1 30 17
M  V30 32 1 31 23
M  V30 33 1 31 25
M  V30 34 1 32 3
M  V30 35 1 32 7
M  V30 36 1 32 18
M  V30 37 1 33 25
M  V30 38 1 1 34 CFG=1
M  V30 39 1 35 2
M  V30 40 1 36 2
M  V30 41 1 37 2
M  V30 42 1 3 38 CFG=1
M  V30 43 1 4 39 CFG=3
M  V30 44 1 40 5
M  V30 45 1 41 5
M  V30 46 1 42 6
M  V30 47 1 7 43 CFG=3
M  V30 48 1 8 44 CFG=1
M  V30 49 1 45 10
M  V30 50 1 46 10
M  V30 51 1 47 12
M  V30 52 1 48 12
M  V30 53 1 49 13
M  V30 54 1 50 13
M  V30 55 1 51 14
M  V30 56 1 52 14
M  V30 57 1 53 16
M  V30 58 1 54 16
M  V30 59 1 55 16
M  V30 60 1 56 18
M  V30 61 1 57 18
M  V30 62 1 58 21
M  V30 63 1 59 21
M  V30 64 1 60 22
M  V30 65 1 61 22
M  V30 66 1 62 22
M  V30 67 1 63 24
M  V30 68 1 64 24
M  V30 69 1 25 65 CFG=3
M  V30 70 1 66 26
M  V30 71 1 67 26
M  V30 72 1 27 68 CFG=1
M  V30 73 1 69 28
M  V30 74 1 70 28
M  V30 75 1 71 29
M  V30 76 1 72 29
M  V30 77 1 73 30
M  V30 78 1 74 30
M  V30 79 1 75 30
M  V30 80 1 76 31
M  V30 81 1 77 31
M  V30 82 1 32 78 CFG=1
M  V30 83 1 9 79 CFG=3
M  V30 84 1 11 80 CFG=3
M  V30 END BOND
M  V30 END CTAB
M  END
>  <i_epik_Tot_Q>  (1) 
2

>  <i_epik_Tot_abs_Q>  (1) 
2

>  <i_i_glide_confnum>  (1) 
869

>  <i_i_glide_lignum>  (1) 
129

>  <i_i_glide_posenum>  (1) 
187

>  <i_i_glide_rotatable_bonds>  (1) 
9

>  <i_lp_mmshare_version>  (1) 
72125

>  <i_m_source_file_index>  (1) 
79

>  <i_f3d_flags>  (1) 
0

>  <num_sample>  (1) 
100

>  <b_lp_Chiralities_Consistent>  (1) 
1

>  <r_epik_Charging_Adjusted_Penalty>  (1) 
0.22182564166484353

>  <r_epik_Ionization_Penalty>  (1) 
0.22182564166592098

>  <r_epik_Ionization_Penalty_Charging>  (1) 
0.060182310347739972

>  <r_epik_Ionization_Penalty_Neutral>  (1) 
0.16164333131818101

>  <r_epik_State_Penalty>  (1) 
0.16164333131710357

>  <r_glide_ring_energy>  (1) 
0

>  <r_i_docking_score>  (1) 
-4.7283721592717978

>  <r_i_glide_ecoul>  (1) 
-5.7896621936048014

>  <r_i_glide_eff_state_penalty>  (1) 
0.16164333131710357

>  <r_i_glide_einternal>  (1) 
20.537577366174609

>  <r_i_glide_emodel>  (1) 
-30.399784714752489

>  <r_i_glide_emodel_strain>  (1) 
1.0619792703009239

>  <r_i_glide_energy>  (1) 
-30.541404533581208

>  <r_i_glide_erotb>  (1) 
0.726867567680611

>  <r_i_glide_esite>  (1) 
-0.092537792255610485

>  <r_i_glide_evdw>  (1) 
-24.751742339976406

>  <r_i_glide_gscore>  (1) 
-4.8900154905889011

>  <r_i_glide_gscore_strain>  (1) 
0

>  <r_i_glide_hbond>  (1) 
-0.069189676254485272

>  <r_i_glide_ligand_efficiency>  (1) 
-0.14328400482641812

>  <r_i_glide_ligand_efficiency_ln>  (1) 
-1.0515654860212662

>  <r_i_glide_ligand_efficiency_sa>  (1) 
-0.45958836442002382

>  <r_i_glide_lipo>  (1) 
-1.9448990498805228

>  <r_i_glide_metal>  (1) 
-0

>  <r_i_glide_rewards>  (1) 
-1.404220093839353

>  <r_lp_Energy>  (1) 
67.377417999999992

>  <s_epik_Chemistry_Notes>  (1) 
This compound contains an acetal/aminal-like group ( X-CH(R)-Y where X, Y are N, S, or O) that may be acid/base labile, releasing an aldehyde.

>  <s_epik_cmdline>  (1) 
J2VwaWtfcHl0aG9uJywgJy1waHQnLCAnMS4wJywgJy1waCcsICc3LjQnLCAnLXRuJywgJzgnLCAnLW1hJywgJzUwMCcsICctaW1hZScsICc8aW5maWxlLm1hZT4nLCAnLW9tYWUnLCAnPG91dGZpbGUubWFlPic=

>  <s_epik_input>  (1) 
W0NIM11bQ0BASF0xW0NIMl1bQ0gyXVtDSDJdTjFbQ0gyXVtDSDJdW0NIMl1OKFtDSDNdKVtDQEBIXTJbQ0gyXVtDQEBIXShbQ0BASF0oW0NIMl0zKVtDQEBIXTNbQ0BAXTI0W0NIMl1bQ0gzXSlbQ0BASF0oTzQpW0NIMl1bTkhdW0NASF0oW0NIMl1bQ0BdNShGKVtDSDNdKU9bQ0gyXVtDQEhdNUY=

>  <s_glide_docking_method>  (1) 
confgen

>  <s_i_glide_gridfile>  (1) 
gpcr_drd2_6luq_protein_autoprepared_prepared

>  <s_lp_Force_Field>  (1) 
S-OPLS

>  <s_lp_Variant>  (1) 
DiffSBDD_78-1

>  <s_m_source_file>  (1) 
generated_generic_title2_ligand_DiffSBDD_2026-06-23_prepared.sdf

>  <GenAI_Model>  (1) 
DiffSBDD

>  <Protein>  (1) 
generic_title2

$$$$
DiffSBDD_82
     RDKit          3D

  0  0  0  0  0  0  0  0  0  0999 V3000
M  V30 BEGIN CTAB
M  V30 COUNTS 74 80 0 0 1
M  V30 BEGIN ATOM
M  V30 1 N 7.779232 6.535113 -14.424821 0
M  V30 2 C 8.345806 6.555709 -11.997395 0
M  V30 3 N 7.760879 3.718292 -14.507076 0
M  V30 4 O 7.017914 0.097294 -19.072760 0
M  V30 5 O 6.063171 2.583928 -19.304544 0
M  V30 6 C 10.608695 7.182369 -9.352705 0
M  V30 7 C 9.219467 5.733919 -10.997652 0 CFG=1
M  V30 8 C 8.037645 5.764372 -13.296054 0
M  V30 9 C 8.053355 5.536792 -17.153796 0
M  V30 10 N 6.942655 6.391453 -16.706167 0
M  V30 11 C 6.959090 2.326765 -17.114472 0
M  V30 12 C 6.619951 6.338948 -15.268506 0 CFG=1
M  V30 13 C 7.770947 2.268416 -14.669884 0
M  V30 14 C 11.450143 7.769287 -10.433543 0
M  V30 15 C 10.223712 7.173579 -6.976061 0
M  V30 16 C 8.332241 3.581032 -12.145628 0
M  V30 17 C 5.804492 6.053182 -17.547670 0
M  V30 18 C 6.819679 7.593152 -14.450573 0 CFG=1
M  V30 19 C 9.138519 6.301756 -7.140413 0
M  V30 20 O 10.580107 7.608768 -5.731035 0
M  V30 21 C 7.903360 1.195652 -19.224692 0
M  V30 22 C 9.542872 6.277073 -9.570685 0
M  V30 23 C 8.799138 5.835436 -8.433286 0
M  V30 24 C 8.172898 3.723900 -19.020523 0
M  V30 25 C 6.393484 5.717084 -18.915608 0
M  V30 26 C 7.296328 2.486105 -18.625286 0 CFG=1
M  V30 27 O 8.176417 0.469888 -16.184944 0
M  V30 28 N 12.018895 8.421303 -8.064486 0
M  V30 29 C 7.799398 5.189027 -18.619911 0 CFG=1
M  V30 30 C 10.940901 7.587419 -8.109264 0
M  V30 31 C 5.433657 7.123146 -14.754359 0
M  V30 32 O 11.775021 9.584815 -7.325847 0
M  V30 33 C 12.280668 8.792703 -9.489026 0
M  V30 34 C 8.072526 1.879788 -16.135181 0 CFG=1
M  V30 35 C 8.661650 4.316353 -10.864768 0
M  V30 36 C 8.041585 4.421575 -13.342475 0
M  V30 37 H 7.385685 6.796664 -11.538341 0
M  V30 38 H 8.832805 7.499117 -12.243936 0
M  V30 39 H 7.519506 -0.703411 -19.119537 0
M  V30 40 H 5.731204 1.695987 -19.359617 0
M  V30 41 H 10.171039 5.610550 -11.503796 0
M  V30 42 H 8.122508 4.621638 -16.603613 0
M  V30 43 H 9.030057 5.992676 -17.013066 0
M  V30 44 H 6.121589 1.636753 -17.000641 0
M  V30 45 H 6.575736 3.276667 -16.773579 0
M  V30 46 H 8.532855 1.801621 -14.051285 0
M  V30 47 H 6.808887 1.871786 -14.345671 0
M  V30 48 H 12.091958 7.033490 -10.910372 0
M  V30 49 H 10.830363 8.267409 -11.174127 0
M  V30 50 H 7.354231 3.150230 -11.986199 0
M  V30 51 H 5.299313 5.190227 -17.139616 0
M  V30 52 H 5.077694 6.864928 -17.598329 0
M  V30 53 H 7.216966 8.443819 -14.999074 0
M  V30 54 H 8.568633 5.980627 -6.280703 0
M  V30 55 H 11.296687 8.225203 -5.816135 0
M  V30 56 H 8.115534 1.317258 -20.287705 0
M  V30 57 H 8.852839 0.957340 -18.745561 0
M  V30 58 H 7.973826 5.155615 -8.541273 0
M  V30 59 H 9.186850 3.541175 -18.660995 0
M  V30 60 H 8.259107 3.722208 -20.107466 0
M  V30 61 H 6.472677 6.631031 -19.506422 0
M  V30 62 H 5.756706 5.039710 -19.478750 0
M  V30 63 H 7.336994 0.085027 -15.973516 0
M  V30 64 H 8.479156 5.824246 -19.190895 0
M  V30 65 H 4.831656 7.740389 -15.422330 0
M  V30 66 H 4.975716 6.706354 -13.869710 0
M  V30 67 H 10.926281 9.888460 -7.612123 0
M  V30 68 H 11.960466 9.817386 -9.686248 0
M  V30 69 H 13.348009 8.737237 -9.704277 0
M  V30 70 H 9.035331 2.310417 -16.422993 0
M  V30 71 H 9.377445 3.707042 -10.315172 0
M  V30 72 H 7.725971 4.326350 -10.315140 0
M  V30 73 H 9.088431 2.818024 -12.340638 0
M  V30 74 H 7.549716 4.254251 -15.336291 0
M  V30 END ATOM
M  V30 BEGIN BOND
M  V30 1 1 7 2
M  V30 2 1 8 1
M  V30 3 1 8 2
M  V30 4 1 10 9
M  V30 5 1 12 1
M  V30 6 1 12 10
M  V30 7 1 13 3
M  V30 8 1 14 6
M  V30 9 1 17 10
M  V30 10 1 18 1
M  V30 11 1 18 12
M  V30 12 1 19 15
M  V30 13 1 20 15
M  V30 14 1 21 4
M  V30 15 2 22 6
M  V30 16 1 22 7
M  V30 17 2 23 19
M  V30 18 1 23 22
M  V30 19 1 25 17
M  V30 20 1 26 5 CFG=3
M  V30 21 1 26 11
M  V30 22 1 26 21
M  V30 23 1 26 24
M  V30 24 1 29 9
M  V30 25 1 29 24
M  V30 26 1 29 25
M  V30 27 1 30 6
M  V30 28 2 30 15
M  V30 29 1 30 28
M  V30 30 1 12 31 CFG=1
M  V30 31 1 31 18
M  V30 32 1 32 28
M  V30 33 1 33 14
M  V30 34 1 33 28
M  V30 35 1 34 11
M  V30 36 1 34 13
M  V30 37 1 34 27
M  V30 38 1 35 7
M  V30 39 1 35 16
M  V30 40 1 36 3
M  V30 41 2 36 8
M  V30 42 1 36 16
M  V30 43 1 37 2
M  V30 44 1 38 2
M  V30 45 1 39 4
M  V30 46 1 40 5
M  V30 47 1 7 41 CFG=3
M  V30 48 1 42 9
M  V30 49 1 43 9
M  V30 50 1 44 11
M  V30 51 1 45 11
M  V30 52 1 46 13
M  V30 53 1 47 13
M  V30 54 1 48 14
M  V30 55 1 49 14
M  V30 56 1 50 16
M  V30 57 1 51 17
M  V30 58 1 52 17
M  V30 59 1 18 53 CFG=3
M  V30 60 1 54 19
M  V30 61 1 55 20
M  V30 62 1 56 21
M  V30 63 1 57 21
M  V30 64 1 58 23
M  V30 65 1 59 24
M  V30 66 1 60 24
M  V30 67 1 61 25
M  V30 68 1 62 25
M  V30 69 1 63 27
M  V30 70 1 29 64 CFG=3
M  V30 71 1 65 31
M  V30 72 1 66 31
M  V30 73 1 67 32
M  V30 74 1 68 33
M  V30 75 1 69 33
M  V30 76 1 34 70 CFG=3
M  V30 77 1 71 35
M  V30 78 1 72 35
M  V30 79 1 73 16
M  V30 80 1 74 3
M  V30 END BOND
M  V30 END CTAB
M  END
>  <i_epik_Tot_Q>  (1) 
0

>  <i_epik_Tot_abs_Q>  (1) 
0

>  <i_i_glide_confnum>  (1) 
7

>  <i_i_glide_lignum>  (1) 
146

>  <i_i_glide_posenum>  (1) 
197

>  <i_i_glide_rotatable_bonds>  (1) 
7

>  <i_lp_mmshare_version>  (1) 
72125

>  <i_m_source_file_index>  (1) 
83

>  <i_f3d_flags>  (1) 
0

>  <num_sample>  (1) 
100

>  <b_lp_Chiralities_Consistent>  (1) 
1

>  <r_epik_Charging_Adjusted_Penalty>  (1) 
8.6093729987814029e-06

>  <r_epik_Ionization_Penalty>  (1) 
4.205837022639483

>  <r_epik_Ionization_Penalty_Charging>  (1) 
8.6093729987814029e-06

>  <r_epik_Ionization_Penalty_Neutral>  (1) 
4.2058284132664845

>  <r_epik_State_Penalty>  (1) 
-0

>  <r_glide_ring_energy>  (1) 
0

>  <r_i_docking_score>  (1) 
-4.7265212718133993

>  <r_i_glide_ecoul>  (1) 
0.20543966157402982

>  <r_i_glide_eff_state_penalty>  (1) 
-0

>  <r_i_glide_einternal>  (1) 
5.4625401844710018

>  <r_i_glide_emodel>  (1) 
-21.535059682623228

>  <r_i_glide_emodel_strain>  (1) 
5.0457951735463382

>  <r_i_glide_energy>  (1) 
-28.46401153584868

>  <r_i_glide_erotb>  (1) 
0.16415830312656554

>  <r_i_glide_esite>  (1) 
0

>  <r_i_glide_evdw>  (1) 
-28.66945119742271

>  <r_i_glide_gscore>  (1) 
-4.7265212718133993

>  <r_i_glide_gscore_strain>  (1) 
0.26144879338658455

>  <r_i_glide_hbond>  (1) 
0

>  <r_i_glide_ligand_efficiency>  (1) 
-0.13129225755037222

>  <r_i_glide_ligand_efficiency_ln>  (1) 
-1.0311992456619929

>  <r_i_glide_ligand_efficiency_sa>  (1) 
-0.43351748277446533

>  <r_i_glide_lipo>  (1) 
-2.0949541620399108

>  <r_i_glide_metal>  (1) 
-0

>  <r_i_glide_rewards>  (1) 
-1.6545175956516074

>  <r_lp_Energy>  (1) 
33.143476

>  <r_lp_tautomer_probability>  (1) 
1

>  <s_epik_Chemistry_Notes>  (1) 
This compound has an imine and may undergo hydrolysis. This compound has a N-S or N-O group and may undergo hydrolysis at high or low pH.

>  <s_epik_cmdline>  (1) 
J2VwaWtfcHl0aG9uJywgJy1waHQnLCAnMS4wJywgJy1waCcsICc3LjQnLCAnLXRuJywgJzgnLCAnLW1hJywgJzUwMCcsICctaW1hZScsICc8aW5maWxlLm1hZT4nLCAnLW9tYWUnLCAnPG91dGZpbGUubWFlPic=

>  <s_epik_input>  (1) 
W0NIMl0xW0NIMl1OMltDSDJdW0NASF0xW0NIMl1bQ0BAXShbT0hdKShbQ0gyXVtPSF0pW0NIMl1bQ0BIXShbT0hdKVtDSDJdL049QyhcW0NAQEhdM04oQzI0NSlbQ0BASF00W0NIMl01KVtDSDJdW0NIMl1bQ0BASF0oW0NIMl0zKWM2W2NIXVtjSF1jKFtPSF0pYyhjNjcpTihbT0hdKVtDSDJdW0NIMl03

>  <s_glide_docking_method>  (1) 
confgen

>  <s_i_glide_gridfile>  (1) 
gpcr_drd2_6luq_protein_autoprepared_prepared

>  <s_lp_Force_Field>  (1) 
S-OPLS

>  <s_lp_Variant>  (1) 
DiffSBDD_82-1

>  <s_m_source_file>  (1) 
generated_generic_title2_ligand_DiffSBDD_2026-06-23_prepared.sdf

>  <GenAI_Model>  (1) 
DiffSBDD

>  <Protein>  (1) 
generic_title2

$$$$
DiffSBDD_78
     RDKit          3D

  0  0  0  0  0  0  0  0  0  0999 V3000
M  V30 BEGIN CTAB
M  V30 COUNTS 80 84 0 0 1
M  V30 BEGIN ATOM
M  V30 1 C 10.139247 8.390228 -7.473003 0 CFG=2
M  V30 2 C 11.621443 8.821646 -7.497340 0
M  V30 3 C 5.375520 5.630798 -13.021921 0 CFG=1
M  V30 4 C 6.511158 3.033853 -13.414037 0 CFG=2
M  V30 5 C 9.692171 7.961309 -6.086138 0
M  V30 6 N 7.217541 0.823559 -14.399862 0
M  V30 7 C 6.340580 3.581760 -11.991326 0 CFG=1
M  V30 8 C 7.779986 5.570257 -12.612439 0 CFG=1
M  V30 9 N 9.831203 7.237295 -8.335886 0 CFG=2 CHG=1
M  V30 10 C 9.997514 6.011989 -7.526867 0
M  V30 11 N 9.151650 5.864319 -13.076241 0 CFG=2 CHG=1
M  V30 12 C 6.940926 6.550890 -14.838509 0
M  V30 13 C 7.587671 1.927325 -13.515796 0
M  V30 14 C 6.698302 -0.143901 -16.575157 0
M  V30 15 O 6.764359 4.149883 -14.305338 0
M  V30 16 C 9.775407 4.790220 -13.854995 0
M  V30 17 C 6.576260 0.134538 -18.083388 0 CFG=1
M  V30 18 C 5.127996 5.902280 -11.519992 0
M  V30 19 C 6.718210 5.482772 -13.732341 0 CFG=2
M  V30 20 F 5.554840 0.966648 -18.289171 0
M  V30 21 C 9.870528 6.446065 -6.061891 0
M  V30 22 C 5.909211 6.575793 -15.974099 0
M  V30 23 O 8.271087 1.630289 -16.334175 0
M  V30 24 C 7.628332 4.356792 -11.637036 0
M  V30 25 C 7.855964 0.824032 -18.583634 0 CFG=1
M  V30 26 C 9.700271 6.357532 -10.618482 0
M  V30 27 C 7.067925 1.148666 -15.815257 0 CFG=2
M  V30 28 C 10.493034 7.232844 -9.660175 0
M  V30 29 C 10.057575 6.552763 -12.108608 0
M  V30 30 C 6.255839 -1.148915 -18.866980 0
M  V30 31 C 8.189007 2.036108 -17.697636 0
M  V30 32 C 5.143366 4.499869 -12.063921 0 CFG=1
M  V30 33 F 8.889556 -0.020925 -18.567481 0
M  V30 34 H 9.497074 9.190235 -7.818262 0
M  V30 35 H 11.802613 9.614827 -6.770270 0
M  V30 36 H 12.283873 7.992060 -7.250787 0
M  V30 37 H 11.920911 9.209461 -8.471270 0
M  V30 38 H 4.575415 5.798792 -13.719003 0
M  V30 39 H 5.551934 2.588667 -13.670573 0
M  V30 40 H 8.633277 8.203682 -5.985021 0
M  V30 41 H 10.228879 8.462853 -5.281558 0
M  V30 42 H 7.881358 0.060863 -14.304214 0
M  V30 43 H 6.121585 2.790259 -11.281769 0
M  V30 44 H 7.523493 6.504188 -12.120294 0
M  V30 45 H 9.251625 5.265258 -7.801841 0
M  V30 46 H 10.980552 5.575113 -7.694212 0
M  V30 47 H 6.986183 7.544417 -14.389256 0
M  V30 48 H 7.907929 6.384184 -15.309916 0
M  V30 49 H 7.742599 1.502693 -12.523675 0
M  V30 50 H 8.552754 2.337409 -13.802513 0
M  V30 51 H 7.470009 -0.892793 -16.388205 0
M  V30 52 H 5.761086 -0.536291 -16.176611 0
M  V30 53 H 10.164352 4.018764 -13.188915 0
M  V30 54 H 9.101623 4.341238 -14.578395 0
M  V30 55 H 10.575407 5.210675 -14.456183 0
M  V30 56 H 5.919431 6.187575 -10.835941 0
M  V30 57 H 4.175420 6.279481 -11.182353 0
M  V30 58 H 9.006594 5.990255 -5.585011 0
M  V30 59 H 10.759805 6.162095 -5.498177 0
M  V30 60 H 6.229625 7.252676 -16.766800 0
M  V30 61 H 5.780210 5.589996 -16.418619 0
M  V30 62 H 4.942204 6.931493 -15.628705 0
M  V30 63 H 7.563977 4.679893 -10.598646 0
M  V30 64 H 8.491631 3.692426 -11.676265 0
M  V30 65 H 7.737367 1.136279 -19.621475 0
M  V30 66 H 8.668849 6.647257 -10.434156 0
M  V30 67 H 9.781768 5.309000 -10.332523 0
M  V30 68 H 6.294821 1.907055 -15.940489 0
M  V30 69 H 11.533805 6.917803 -9.585343 0
M  V30 70 H 10.492253 8.250695 -10.050588 0
M  V30 71 H 11.094905 6.271468 -12.295606 0
M  V30 72 H 9.995889 7.616692 -12.340619 0
M  V30 73 H 7.036462 -1.900170 -18.740699 0
M  V30 74 H 5.318684 -1.590889 -18.526038 0
M  V30 75 H 6.156851 -0.946533 -19.933755 0
M  V30 76 H 7.432813 2.816092 -17.807686 0
M  V30 77 H 9.139509 2.476635 -17.997962 0
M  V30 78 H 4.206107 3.990231 -12.269158 0
M  V30 79 H 8.832698 7.318259 -8.511545 0
M  V30 80 H 8.995245 6.573968 -13.777871 0
M  V30 END ATOM
M  V30 BEGIN BOND
M  V30 1 1 2 1
M  V30 2 1 5 1
M  V30 3 1 7 4
M  V30 4 1 9 1
M  V30 5 1 10 9
M  V30 6 1 11 8
M  V30 7 1 13 4
M  V30 8 1 13 6
M  V30 9 1 15 4
M  V30 10 1 16 11
M  V30 11 1 17 14
M  V30 12 1 18 3
M  V30 13 1 19 3
M  V30 14 1 19 8
M  V30 15 1 19 12 CFG=3
M  V30 16 1 19 15
M  V30 17 1 17 20 CFG=1
M  V30 18 1 21 5
M  V30 19 1 21 10
M  V30 20 1 22 12
M  V30 21 1 24 7
M  V30 22 1 24 8
M  V30 23 1 25 17
M  V30 24 1 27 6
M  V30 25 1 27 14
M  V30 26 1 27 23
M  V30 27 1 28 9
M  V30 28 1 28 26
M  V30 29 1 29 11
M  V30 30 1 29 26
M  V30 31 1 30 17
M  V30 32 1 31 23
M  V30 33 1 31 25
M  V30 34 1 32 3
M  V30 35 1 32 7
M  V30 36 1 32 18
M  V30 37 1 33 25
M  V30 38 1 1 34 CFG=3
M  V30 39 1 35 2
M  V30 40 1 36 2
M  V30 41 1 37 2
M  V30 42 1 3 38 CFG=3
M  V30 43 1 4 39 CFG=3
M  V30 44 1 40 5
M  V30 45 1 41 5
M  V30 46 1 42 6
M  V30 47 1 7 43 CFG=1
M  V30 48 1 8 44 CFG=1
M  V30 49 1 45 10
M  V30 50 1 46 10
M  V30 51 1 47 12
M  V30 52 1 48 12
M  V30 53 1 49 13
M  V30 54 1 50 13
M  V30 55 1 51 14
M  V30 56 1 52 14
M  V30 57 1 53 16
M  V30 58 1 54 16
M  V30 59 1 55 16
M  V30 60 1 56 18
M  V30 61 1 57 18
M  V30 62 1 58 21
M  V30 63 1 59 21
M  V30 64 1 60 22
M  V30 65 1 61 22
M  V30 66 1 62 22
M  V30 67 1 63 24
M  V30 68 1 64 24
M  V30 69 1 25 65 CFG=3
M  V30 70 1 66 26
M  V30 71 1 67 26
M  V30 72 1 27 68 CFG=1
M  V30 73 1 69 28
M  V30 74 1 70 28
M  V30 75 1 71 29
M  V30 76 1 72 29
M  V30 77 1 73 30
M  V30 78 1 74 30
M  V30 79 1 75 30
M  V30 80 1 76 31
M  V30 81 1 77 31
M  V30 82 1 32 78 CFG=3
M  V30 83 1 9 79 CFG=3
M  V30 84 1 11 80 CFG=3
M  V30 END BOND
M  V30 END CTAB
M  END
>  <i_epik_Tot_Q>  (1) 
2

>  <i_epik_Tot_abs_Q>  (1) 
2

>  <i_i_glide_confnum>  (1) 
673

>  <i_i_glide_lignum>  (1) 
129

>  <i_i_glide_posenum>  (1) 
75

>  <i_i_glide_rotatable_bonds>  (1) 
9

>  <i_lp_mmshare_version>  (1) 
72125

>  <i_m_source_file_index>  (1) 
79

>  <i_f3d_flags>  (1) 
0

>  <num_sample>  (1) 
100

>  <b_lp_Chiralities_Consistent>  (1) 
1

>  <r_epik_Charging_Adjusted_Penalty>  (1) 
0.22182564166484353

>  <r_epik_Ionization_Penalty>  (1) 
0.22182564166592098

>  <r_epik_Ionization_Penalty_Charging>  (1) 
0.060182310347739972

>  <r_epik_Ionization_Penalty_Neutral>  (1) 
0.16164333131818101

>  <r_epik_State_Penalty>  (1) 
0.16164333131710357

>  <r_glide_ring_energy>  (1) 
0

>  <r_i_docking_score>  (1) 
-4.7244942256208944

>  <r_i_glide_ecoul>  (1) 
-5.5057045858139695

>  <r_i_glide_eff_state_penalty>  (1) 
0.16164333131710357

>  <r_i_glide_einternal>  (1) 
10.007922660038679

>  <r_i_glide_emodel>  (1) 
-35.312231388561841

>  <r_i_glide_emodel_strain>  (1) 
1.7584595447660547

>  <r_i_glide_energy>  (1) 
-30.894377469610362

>  <r_i_glide_erotb>  (1) 
0.726867567680611

>  <r_i_glide_esite>  (1) 
-0.082918202898975349

>  <r_i_glide_evdw>  (1) 
-25.388672883796392

>  <r_i_glide_gscore>  (1) 
-4.8861375569379977

>  <r_i_glide_gscore_strain>  (1) 
0

>  <r_i_glide_hbond>  (1) 
-0.14403360236175616

>  <r_i_glide_ligand_efficiency>  (1) 
-0.14316649168548165

>  <r_i_glide_ligand_efficiency_ln>  (1) 
-1.0507030536561712

>  <r_i_glide_ligand_efficiency_sa>  (1) 
-0.45921143698624445

>  <r_i_glide_lipo>  (1) 
-1.8861361239035037

>  <r_i_glide_metal>  (1) 
-0

>  <r_i_glide_rewards>  (1) 
-1.4046278633924578

>  <r_lp_Energy>  (1) 
67.377417999999992

>  <s_epik_Chemistry_Notes>  (1) 
This compound contains an acetal/aminal-like group ( X-CH(R)-Y where X, Y are N, S, or O) that may be acid/base labile, releasing an aldehyde.

>  <s_epik_cmdline>  (1) 
J2VwaWtfcHl0aG9uJywgJy1waHQnLCAnMS4wJywgJy1waCcsICc3LjQnLCAnLXRuJywgJzgnLCAnLW1hJywgJzUwMCcsICctaW1hZScsICc8aW5maWxlLm1hZT4nLCAnLW9tYWUnLCAnPG91dGZpbGUubWFlPic=

>  <s_epik_input>  (1) 
W0NIM11bQ0BASF0xW0NIMl1bQ0gyXVtDSDJdTjFbQ0gyXVtDSDJdW0NIMl1OKFtDSDNdKVtDQEBIXTJbQ0gyXVtDQEBIXShbQ0BASF0oW0NIMl0zKVtDQEBIXTNbQ0BAXTI0W0NIMl1bQ0gzXSlbQ0BASF0oTzQpW0NIMl1bTkhdW0NASF0oW0NIMl1bQ0BdNShGKVtDSDNdKU9bQ0gyXVtDQEhdNUY=

>  <s_glide_docking_method>  (1) 
confgen

>  <s_i_glide_gridfile>  (1) 
gpcr_drd2_6luq_protein_autoprepared_prepared

>  <s_lp_Force_Field>  (1) 
S-OPLS

>  <s_lp_Variant>  (1) 
DiffSBDD_78-1

>  <s_m_source_file>  (1) 
generated_generic_title2_ligand_DiffSBDD_2026-06-23_prepared.sdf

>  <GenAI_Model>  (1) 
DiffSBDD

>  <Protein>  (1) 
generic_title2

$$$$
DiffSBDD_3
     RDKit          3D

  0  0  0  0  0  0  0  0  0  0999 V3000
M  V30 BEGIN CTAB
M  V30 COUNTS 88 96 0 0 1
M  V30 BEGIN ATOM
M  V30 1 C 7.240243 2.387447 -15.758026 0
M  V30 2 O 5.383337 7.590747 -14.607200 0
M  V30 3 C 11.207959 7.212216 -5.155863 0
M  V30 4 C 9.375987 4.287859 -10.361544 0
M  V30 5 C 9.005370 5.052622 -19.390525 0
M  V30 6 C 6.794123 7.032271 -12.473992 0 CFG=2
M  V30 7 C 9.274299 6.538894 -19.382579 0
M  V30 8 C 10.003925 6.089229 -7.110349 0 CFG=2
M  V30 9 O 6.992775 8.338735 -11.985029 0
M  V30 10 C 8.947654 6.810400 -6.385321 0
M  V30 11 C 9.118804 6.387156 -11.925744 0 CFG=2
M  V30 12 C 9.211658 2.319213 -17.208060 0
M  V30 13 C 6.002705 8.285438 -15.675003 0
M  V30 14 C 10.990923 4.069782 -17.168538 0
M  V30 15 C 6.214128 6.716562 -13.864017 0 CFG=2
M  V30 16 C 10.228523 3.079777 -18.059315 0 CFG=2
M  V30 17 C 10.642600 8.571920 -7.363735 0 CFG=2
M  V30 18 C 8.116787 3.268646 -16.677564 0 CFG=1
M  V30 19 C 6.584731 5.454537 -14.645140 0
M  V30 20 C 9.080712 5.813007 -20.694205 0
M  V30 21 C 5.375361 6.656074 -12.588840 0
M  V30 22 C 9.948462 7.155154 -9.430416 0 CFG=2
M  V30 23 C 9.941126 5.317178 -11.345396 0 CFG=1
M  V30 24 C 8.009960 3.998495 -19.202203 0 CFG=2
M  V30 25 C 10.074471 5.019883 -16.384488 0
M  V30 26 C 11.663849 9.590351 -6.838638 0
M  V30 27 C 10.197211 6.767073 -10.901487 0 CFG=1
M  V30 28 C 7.261156 3.742993 -17.894922 0
M  V30 29 C 10.366432 7.374198 -6.424550 0 CFG=1
M  V30 30 C 8.754203 4.427657 -15.817711 0 CFG=1
M  V30 31 C 7.844377 5.645991 -15.508981 0
M  V30 32 F 11.375435 8.305402 -4.414345 0
M  V30 33 C 9.571281 3.687137 -19.296887 0 CFG=1
M  V30 34 C 7.662049 6.124276 -11.708981 0
M  V30 35 C 8.979409 4.841692 -8.988948 0
M  V30 36 C 10.965901 8.162024 -8.837590 0
M  V30 37 C 9.997127 5.892910 -8.579252 0 CFG=2
M  V30 38 H 6.806416 1.544973 -16.297567 0
M  V30 39 H 7.815205 1.969800 -14.930789 0
M  V30 40 H 6.418985 2.938892 -15.319285 0
M  V30 41 H 10.722568 6.491473 -4.495366 0
M  V30 42 H 12.175281 6.783343 -5.393341 0
M  V30 43 H 8.587949 3.697592 -10.822974 0
M  V30 44 H 10.171266 3.590275 -10.148573 0
M  V30 45 H 8.473195 7.189603 -19.040291 0
M  V30 46 H 10.281364 6.867314 -19.135126 0
M  V30 47 H 10.426004 5.221070 -6.643341 0
M  V30 48 H 6.975421 8.278870 -11.023046 0
M  V30 49 H 8.190430 7.342352 -6.947794 0
M  V30 50 H 8.581690 6.182012 -5.585101 0
M  V30 51 H 9.361475 6.634818 -12.953494 0
M  V30 52 H 8.764871 1.520433 -17.801548 0
M  V30 53 H 9.720991 1.820239 -16.385070 0
M  V30 54 H 5.375816 9.121173 -15.985209 0
M  V30 55 H 6.975447 8.678653 -15.379542 0
M  V30 56 H 6.111892 7.652529 -16.552043 0
M  V30 57 H 11.698791 4.646576 -17.764898 0
M  V30 58 H 11.596904 3.512398 -16.455327 0
M  V30 59 H 10.957044 2.355192 -18.424424 0
M  V30 60 H 9.696088 9.112385 -7.413414 0
M  V30 61 H 6.744851 4.641560 -13.942176 0
M  V30 62 H 5.736623 5.164504 -15.264022 0
M  V30 63 H 9.960301 5.659561 -21.317171 0
M  V30 64 H 8.151241 5.987542 -21.232549 0
M  V30 65 H 5.082045 5.677307 -12.215329 0
M  V30 66 H 4.686241 7.467677 -12.353810 0
M  V30 67 H 8.975417 7.617848 -9.367057 0
M  V30 68 H 10.596913 4.865568 -12.080768 0
M  V30 69 H 7.407447 3.784966 -20.082774 0
M  V30 70 H 9.846101 5.876103 -17.010556 0
M  V30 71 H 10.650547 5.448257 -15.563517 0
M  V30 72 H 12.648660 9.156803 -6.668515 0
M  V30 73 H 11.775400 10.389970 -7.558919 0
M  V30 74 H 11.319405 10.071215 -5.924183 0
M  V30 75 H 11.083908 7.236469 -11.323593 0
M  V30 76 H 6.549663 2.951415 -18.130955 0
M  V30 77 H 6.633314 4.601451 -17.662933 0
M  V30 78 H 9.012630 3.990979 -14.853859 0
M  V30 79 H 7.576978 6.120819 -16.447215 0
M  V30 80 H 8.454190 6.384927 -14.996709 0
M  V30 81 H 9.917982 3.251204 -20.232227 0
M  V30 82 H 7.398799 6.208042 -10.671163 0
M  V30 83 H 7.430362 5.102426 -11.995194 0
M  V30 84 H 7.973485 5.252217 -8.951040 0
M  V30 85 H 8.977425 4.035555 -8.254344 0
M  V30 86 H 10.987937 9.055300 -9.463297 0
M  V30 87 H 11.970777 7.740736 -8.884222 0
M  V30 88 H 10.975414 5.492458 -8.752189 0
M  V30 END ATOM
M  V30 BEGIN BOND
M  V30 1 1 7 5
M  V30 2 1 6 9 CFG=3
M  V30 3 1 10 8
M  V30 4 1 13 2
M  V30 5 1 15 2 CFG=3
M  V30 6 1 15 6
M  V30 7 1 16 12
M  V30 8 1 16 14
M  V30 9 1 18 1 CFG=1
M  V30 10 1 18 12
M  V30 11 1 19 15
M  V30 12 1 20 5
M  V30 13 1 20 7
M  V30 14 1 21 6
M  V30 15 1 21 15
M  V30 16 1 23 4
M  V30 17 1 23 11
M  V30 18 1 24 5
M  V30 19 1 25 14
M  V30 20 1 26 17
M  V30 21 1 27 11
M  V30 22 1 27 22
M  V30 23 1 27 23
M  V30 24 1 28 18
M  V30 25 1 28 24
M  V30 26 1 29 3 CFG=1
M  V30 27 1 29 8
M  V30 28 1 29 10
M  V30 29 1 29 17
M  V30 30 1 30 18
M  V30 31 1 30 25
M  V30 32 1 31 19
M  V30 33 1 31 30
M  V30 34 1 32 3
M  V30 35 1 33 5
M  V30 36 1 33 16
M  V30 37 1 33 24
M  V30 38 1 34 6
M  V30 39 1 34 11
M  V30 40 1 35 4
M  V30 41 1 36 17
M  V30 42 1 36 22
M  V30 43 1 37 8
M  V30 44 1 37 22
M  V30 45 1 37 35
M  V30 46 1 38 1
M  V30 47 1 39 1
M  V30 48 1 40 1
M  V30 49 1 41 3
M  V30 50 1 42 3
M  V30 51 1 43 4
M  V30 52 1 44 4
M  V30 53 1 45 7
M  V30 54 1 46 7
M  V30 55 1 8 47 CFG=1
M  V30 56 1 48 9
M  V30 57 1 49 10
M  V30 58 1 50 10
M  V30 59 1 11 51 CFG=3
M  V30 60 1 52 12
M  V30 61 1 53 12
M  V30 62 1 54 13
M  V30 63 1 55 13
M  V30 64 1 56 13
M  V30 65 1 57 14
M  V30 66 1 58 14
M  V30 67 1 16 59 CFG=3
M  V30 68 1 17 60 CFG=3
M  V30 69 1 61 19
M  V30 70 1 62 19
M  V30 71 1 63 20
M  V30 72 1 64 20
M  V30 73 1 65 21
M  V30 74 1 66 21
M  V30 75 1 22 67 CFG=3
M  V30 76 1 23 68 CFG=3
M  V30 77 1 24 69 CFG=3
M  V30 78 1 70 25
M  V30 79 1 71 25
M  V30 80 1 72 26
M  V30 81 1 73 26
M  V30 82 1 74 26
M  V30 83 1 27 75 CFG=3
M  V30 84 1 76 28
M  V30 85 1 77 28
M  V30 86 1 30 78 CFG=1
M  V30 87 1 79 31
M  V30 88 1 80 31
M  V30 89 1 33 81 CFG=3
M  V30 90 1 82 34
M  V30 91 1 83 34
M  V30 92 1 84 35
M  V30 93 1 85 35
M  V30 94 1 86 36
M  V30 95 1 87 36
M  V30 96 1 37 88 CFG=3
M  V30 END BOND
M  V30 END CTAB
M  END
>  <i_epik_Tot_Q>  (1) 
0

>  <i_epik_Tot_abs_Q>  (1) 
0

>  <i_i_glide_confnum>  (1) 
58

>  <i_i_glide_lignum>  (1) 
7

>  <i_i_glide_posenum>  (1) 
214

>  <i_i_glide_rotatable_bonds>  (1) 
8

>  <i_lp_mmshare_version>  (1) 
72125

>  <i_m_source_file_index>  (1) 
4

>  <i_f3d_flags>  (1) 
0

>  <num_sample>  (1) 
100

>  <b_lp_Chiralities_Consistent>  (1) 
1

>  <r_epik_Charging_Adjusted_Penalty>  (1) 
0

>  <r_epik_Ionization_Penalty>  (1) 
4.4190122057335124e-08

>  <r_epik_Ionization_Penalty_Charging>  (1) 
0

>  <r_epik_Ionization_Penalty_Neutral>  (1) 
4.4190122057335124e-08

>  <r_epik_State_Penalty>  (1) 
-0

>  <r_glide_ring_energy>  (1) 
0

>  <r_i_docking_score>  (1) 
-4.7239292176102694

>  <r_i_glide_ecoul>  (1) 
-7.2184256874877448

>  <r_i_glide_eff_state_penalty>  (1) 
-0

>  <r_i_glide_einternal>  (1) 
19.918933596362489

>  <r_i_glide_emodel>  (1) 
-6.7287627054423691

>  <r_i_glide_emodel_strain>  (1) 
4.1172996049379833

>  <r_i_glide_energy>  (1) 
-14.3097975220164

>  <r_i_glide_erotb>  (1) 
0.39265675438420033

>  <r_i_glide_esite>  (1) 
0

>  <r_i_glide_evdw>  (1) 
-7.0913718345286556

>  <r_i_glide_gscore>  (1) 
-4.7239292176102694

>  <r_i_glide_gscore_strain>  (1) 
0.029324901234495826

>  <r_i_glide_hbond>  (1) 
-0.16

>  <r_i_glide_ligand_efficiency>  (1) 
-0.12767376263811539

>  <r_i_glide_ligand_efficiency_ln>  (1) 
-1.024509502686253

>  <r_i_glide_ligand_efficiency_sa>  (1) 
-0.42543730174458683

>  <r_i_glide_lipo>  (1) 
-2.630012586976386

>  <r_i_glide_metal>  (1) 
-0

>  <r_i_glide_rewards>  (1) 
-0.91856584140298447

>  <r_lp_Energy>  (1) 
90.289001999999996

>  <r_lp_tautomer_probability>  (1) 
1

>  <s_epik_cmdline>  (1) 
J2VwaWtfcHl0aG9uJywgJy1waHQnLCAnMS4wJywgJy1waCcsICc3LjQnLCAnLXRuJywgJzgnLCAnLW1hJywgJzUwMCcsICctaW1hZScsICc8aW5maWxlLm1hZT4nLCAnLW9tYWUnLCAnPG91dGZpbGUubWFlPic=

>  <s_epik_input>  (1) 
W0NIMl0xW0NIMl1DMTJbQ0BIXTNbQ0BASF0yW0NAQEhdNFtDSDJdW0NAXShbQ0gzXSkoW0NIMl0zKVtDQEBIXShbQ0gyXVtDSDJdNClbQ0gyXVtDSDJdW0NAXShbQ0gyXTUpKE9bQ0gzXSlbQ0BdNShbT0hdKVtDSDJdW0NAQEhdNltDQEhdKFtDSDJdW0NIMl03KVtDQEBIXTZbQ0BIXShbQ0gyXVtDQEBIXThbQ0gzXSlbQ0BIXTdbQ0BIXShbQ0gyXTkpW0NAQF04OVtDSDJdRg==

>  <s_glide_docking_method>  (1) 
confgen

>  <s_i_glide_gridfile>  (1) 
gpcr_drd2_6luq_protein_autoprepared_prepared

>  <s_lp_Force_Field>  (1) 
S-OPLS

>  <s_lp_Variant>  (1) 
DiffSBDD_3-1

>  <s_m_source_file>  (1) 
generated_generic_title2_ligand_DiffSBDD_2026-06-23_prepared.sdf

>  <GenAI_Model>  (1) 
DiffSBDD

>  <Protein>  (1) 
generic_title2

$$$$
DiffSBDD_57
     RDKit          3D

  0  0  0  0  0  0  0  0  0  0999 V3000
M  V30 BEGIN CTAB
M  V30 COUNTS 63 67 0 0 1
M  V30 BEGIN ATOM
M  V30 1 C 9.201094 1.582488 -19.732600 0
M  V30 2 C 8.155089 4.799752 -16.444862 0
M  V30 3 C 9.775401 6.944443 -10.379007 0
M  V30 4 N 10.575409 7.253156 -5.632137 0
M  V30 5 C 6.933165 5.065432 -15.536473 0 CFG=2
M  V30 6 C 5.866566 6.265882 -17.565075 0
M  V30 7 C 8.516184 3.916282 -18.947176 0 CFG=2
M  V30 8 C 6.175560 6.319066 -16.056820 0
M  V30 9 C 6.707517 6.045581 -13.193583 0
M  V30 10 C 7.730527 1.093700 -19.888740 0
M  V30 11 C 12.282868 8.478833 -7.968838 0
M  V30 12 F 13.179895 8.790228 -8.902138 0
M  V30 13 C 7.019388 6.044495 -11.828886 0
M  V30 14 F 11.774511 9.590279 -7.446102 0
M  V30 15 C 7.904570 5.083747 -11.302173 0
M  V30 16 O 8.226083 5.104380 -9.970934 0
M  V30 17 C 10.575170 6.583811 -7.764315 0
M  V30 18 C 6.185352 3.220246 -19.651577 0
M  V30 19 C 6.738389 2.090341 -20.558243 0
M  V30 20 C 10.775719 7.776498 -9.872479 0
M  V30 21 C 8.862466 4.659280 -20.242816 0
M  V30 22 C 8.464797 4.108441 -12.145199 0
M  V30 23 C 8.147992 4.099230 -13.514554 0
M  V30 24 N 9.609053 5.768782 -8.249330 0
M  V30 25 C 9.468196 2.747763 -18.738422 0
M  V30 26 N 10.985025 6.394875 -6.431061 0
M  V30 27 N 7.070731 5.947162 -18.360916 0 CHG=1
M  V30 28 C 7.124407 3.477956 -18.498806 0 CFG=2
M  V30 29 C 11.191454 7.599219 -8.546126 0
M  V30 30 C 7.273608 5.075561 -14.048110 0
M  V30 31 C 9.219182 5.954862 -9.530608 0
M  V30 32 C 7.741032 4.711572 -17.901554 0 CFG=2
M  V30 33 H 9.807650 0.733476 -19.414276 0
M  V30 34 H 9.588673 1.840630 -20.717586 0
M  V30 35 H 8.896957 5.590245 -16.330066 0
M  V30 36 H 8.655149 3.870797 -16.182077 0
M  V30 37 H 9.436934 7.061019 -11.396131 0
M  V30 38 H 10.886432 7.015135 -4.669151 0
M  V30 39 H 6.262315 4.213471 -15.591000 0
M  V30 40 H 5.101853 5.516352 -17.765823 0
M  V30 41 H 5.458675 7.220690 -17.899037 0
M  V30 42 H 5.225004 6.430635 -15.534686 0
M  V30 43 H 6.759106 7.214609 -15.842327 0
M  V30 44 H 6.033868 6.792161 -13.580541 0
M  V30 45 H 7.339101 0.741634 -18.933837 0
M  V30 46 H 7.761120 0.203240 -20.517353 0
M  V30 47 H 12.840106 7.987983 -7.185087 0
M  V30 48 H 6.587437 6.790191 -11.185025 0
M  V30 49 H 5.223147 2.919913 -19.234702 0
M  V30 50 H 6.003769 4.125393 -20.230209 0
M  V30 51 H 5.889527 1.531542 -20.955271 0
M  V30 52 H 7.221111 2.528051 -21.432423 0
M  V30 53 H 11.221261 8.539744 -10.491722 0
M  V30 54 H 9.137027 3.973096 -21.041579 0
M  V30 55 H 8.034565 5.256456 -20.620813 0
M  V30 56 H 9.712167 5.320903 -20.071179 0
M  V30 57 H 9.140071 3.366963 -11.740799 0
M  V30 58 H 8.575404 3.345394 -14.153525 0
M  V30 59 H 9.370769 2.370286 -17.720248 0
M  V30 60 H 10.497580 3.095735 -18.828945 0
M  V30 61 H 6.809348 5.832455 -19.329785 0
M  V30 62 H 7.055897 2.679399 -17.760875 0
M  V30 63 H 7.726609 6.711772 -18.291112 0
M  V30 END ATOM
M  V30 BEGIN BOND
M  V30 1 1 5 2
M  V30 2 1 8 5
M  V30 3 1 8 6
M  V30 4 1 10 1
M  V30 5 1 12 11
M  V30 6 2 13 9
M  V30 7 1 14 11
M  V30 8 1 15 13
M  V30 9 1 16 15
M  V30 10 1 19 10
M  V30 11 1 19 18
M  V30 12 2 20 3
M  V30 13 1 7 21 CFG=3
M  V30 14 2 22 15
M  V30 15 1 23 22
M  V30 16 1 24 17
M  V30 17 1 25 1
M  V30 18 1 25 7
M  V30 19 2 26 4
M  V30 20 1 26 17
M  V30 21 1 27 6
M  V30 22 1 28 7
M  V30 23 1 28 18
M  V30 24 1 29 11
M  V30 25 2 29 17
M  V30 26 1 29 20
M  V30 27 1 30 5
M  V30 28 1 30 9
M  V30 29 2 30 23
M  V30 30 1 31 3
M  V30 31 1 31 16
M  V30 32 2 31 24
M  V30 33 1 32 2 CFG=1
M  V30 34 1 32 7
M  V30 35 1 32 27
M  V30 36 1 32 28
M  V30 37 1 33 1
M  V30 38 1 34 1
M  V30 39 1 35 2
M  V30 40 1 36 2
M  V30 41 1 37 3
M  V30 42 1 38 4
M  V30 43 1 5 39 CFG=1
M  V30 44 1 40 6
M  V30 45 1 41 6
M  V30 46 1 42 8
M  V30 47 1 43 8
M  V30 48 1 44 9
M  V30 49 1 45 10
M  V30 50 1 46 10
M  V30 51 1 47 11
M  V30 52 1 48 13
M  V30 53 1 49 18
M  V30 54 1 50 18
M  V30 55 1 51 19
M  V30 56 1 52 19
M  V30 57 1 53 20
M  V30 58 1 54 21
M  V30 59 1 55 21
M  V30 60 1 56 21
M  V30 61 1 57 22
M  V30 62 1 58 23
M  V30 63 1 59 25
M  V30 64 1 60 25
M  V30 65 1 61 27
M  V30 66 1 28 62 CFG=1
M  V30 67 1 63 27
M  V30 END BOND
M  V30 END CTAB
M  END
>  <i_epik_Tot_Q>  (1) 
1

>  <i_epik_Tot_abs_Q>  (1) 
1

>  <i_i_glide_confnum>  (1) 
9

>  <i_i_glide_lignum>  (1) 
91

>  <i_i_glide_posenum>  (1) 
238

>  <i_i_glide_rotatable_bonds>  (1) 
5

>  <i_lp_mmshare_version>  (1) 
72125

>  <i_m_source_file_index>  (1) 
58

>  <i_f3d_flags>  (1) 
0

>  <num_sample>  (1) 
100

>  <b_lp_Chiralities_Consistent>  (1) 
1

>  <r_epik_Charging_Adjusted_Penalty>  (1) 
0.05439887129790702

>  <r_epik_Ionization_Penalty>  (1) 
0.027199436685871044

>  <r_epik_Ionization_Penalty_Charging>  (1) 
0.02719943564895351

>  <r_epik_Ionization_Penalty_Neutral>  (1) 
1.0369175350527502e-09

>  <r_epik_State_Penalty>  (1) 
0.02719943564895351

>  <r_glide_ring_energy>  (1) 
0

>  <r_i_docking_score>  (1) 
-4.7225645999352732

>  <r_i_glide_ecoul>  (1) 
-0.0021214445372363944

>  <r_i_glide_eff_state_penalty>  (1) 
0.02719943564895351

>  <r_i_glide_einternal>  (1) 
6.5156105823784323

>  <r_i_glide_emodel>  (1) 
-37.293366249484656

>  <r_i_glide_emodel_strain>  (1) 
2.0113541883444981

>  <r_i_glide_energy>  (1) 
-36.534848954856805

>  <r_i_glide_erotb>  (1) 
0.3073767375315366

>  <r_i_glide_esite>  (1) 
0

>  <r_i_glide_evdw>  (1) 
-36.532727510319567

>  <r_i_glide_gscore>  (1) 
-4.749764035584227

>  <r_i_glide_gscore_strain>  (1) 
0

>  <r_i_glide_hbond>  (1) 
0

>  <r_i_glide_ligand_efficiency>  (1) 
-0.14758014374797729

>  <r_i_glide_ligand_efficiency_ln>  (1) 
-1.0575109461745222

>  <r_i_glide_ligand_efficiency_sa>  (1) 
-0.46853775087031457

>  <r_i_glide_lipo>  (1) 
-1.865703423878871

>  <r_i_glide_metal>  (1) 
-0

>  <r_i_glide_rewards>  (1) 
-1.3644827570403288

>  <r_lp_Energy>  (1) 
78.297426000000002

>  <r_lp_tautomer_probability>  (1) 
1

>  <s_epik_cmdline>  (1) 
J2VwaWtfcHl0aG9uJywgJy1waHQnLCAnMS4wJywgJy1waCcsICc3LjQnLCAnLXRuJywgJzgnLCAnLW1hJywgJzUwMCcsICctaW1hZScsICc8aW5maWxlLm1hZT4nLCAnLW9tYWUnLCAnPG91dGZpbGUubWFlPic=

>  <s_epik_input>  (1) 
W0NIMl0xW0NIMl1bQ0gyXVtDSDJdW0NIMl1bQ0BIXTJbQ0BAXTEoW0NIM10pW0NAXTIzW0NIMl1bQ0BIXShbQ0gyXVtDSDJdW05IXTMpYyhbY0hdW2NIXTQpW2NIXVtjSF1jNE9jKFtjSF1bY0hdYzVbQ0hdKEYpRiluYzVcTj1OXFtIXQ==

>  <s_glide_docking_method>  (1) 
confgen

>  <s_i_glide_gridfile>  (1) 
gpcr_drd2_6luq_protein_autoprepared_prepared

>  <s_lp_Force_Field>  (1) 
S-OPLS

>  <s_lp_Variant>  (1) 
DiffSBDD_57-1

>  <s_m_source_file>  (1) 
generated_generic_title2_ligand_DiffSBDD_2026-06-23_prepared.sdf

>  <GenAI_Model>  (1) 
DiffSBDD

>  <Protein>  (1) 
generic_title2

$$$$
DiffSBDD_84
     RDKit          3D

  0  0  0  0  0  0  0  0  0  0999 V3000
M  V30 BEGIN CTAB
M  V30 COUNTS 42 43 0 0 1
M  V30 BEGIN ATOM
M  V30 1 C 11.790331 8.841642 -4.078213 0
M  V30 2 C 7.758501 4.595338 -14.241010 0
M  V30 3 C 11.775365 7.433125 -3.987696 0
M  V30 4 C 8.575694 5.448986 -9.979828 0
M  V30 5 O 9.527058 5.989868 -10.544177 0
M  V30 6 C 6.575538 3.184868 -12.638001 0
M  V30 7 N 7.407965 5.190205 -10.594965 0
M  V30 8 C 7.775778 3.530111 -15.162946 0
M  V30 9 C 7.197947 2.292107 -14.821297 0
M  V30 10 C 11.408628 9.475680 -5.278240 0
M  V30 11 C 12.176956 6.745537 -2.696781 0
M  V30 12 C 6.596743 2.119764 -13.559711 0
M  V30 13 O 12.167946 9.590219 -3.004880 0
M  V30 14 C 7.138907 5.576435 -11.981158 0
M  V30 15 C 11.001336 7.297772 -6.302255 0
M  V30 16 C 11.375309 6.664783 -5.099098 0
M  V30 17 C 7.159957 4.423916 -12.975061 0
M  V30 18 C 8.678238 5.042758 -8.503123 0
M  V30 19 C 10.594027 6.462340 -7.502975 0
M  V30 20 C 11.015841 8.704083 -6.390162 0
M  V30 21 C 9.084862 6.193216 -7.555557 0
M  V30 22 H 8.204139 5.542961 -14.504887 0
M  V30 23 H 6.112921 3.051083 -11.671994 0
M  V30 24 H 6.663348 4.752430 -10.072470 0
M  V30 25 H 8.234492 3.662142 -16.131807 0
M  V30 26 H 7.213660 1.475322 -15.528207 0
M  V30 27 H 11.417967 10.553590 -5.345968 0
M  V30 28 H 12.173282 5.660938 -2.806485 0
M  V30 29 H 13.179949 7.047828 -2.401823 0
M  V30 30 H 11.480517 7.003585 -1.898922 0
M  V30 31 H 6.151870 1.170070 -13.298848 0
M  V30 32 H 12.434222 9.078589 -2.257026 0
M  V30 33 H 6.141291 6.015663 -12.006245 0
M  V30 34 H 7.810500 6.369453 -12.315113 0
M  V30 35 H 11.362000 5.590211 -5.031428 0
M  V30 36 H 9.378045 4.214612 -8.406025 0
M  V30 37 H 7.712101 4.655420 -8.179987 0
M  V30 38 H 10.924294 6.952167 -8.419626 0
M  V30 39 H 11.135484 5.518666 -7.453168 0
M  V30 40 H 10.727964 9.189998 -7.310051 0
M  V30 41 H 8.734677 5.947413 -6.552724 0
M  V30 42 H 8.575358 7.117681 -7.821969 0
M  V30 END ATOM
M  V30 BEGIN BOND
M  V30 1 2 3 1
M  V30 2 2 5 4
M  V30 3 1 7 4
M  V30 4 1 8 2
M  V30 5 2 9 8
M  V30 6 1 10 1
M  V30 7 1 11 3
M  V30 8 2 12 6
M  V30 9 1 12 9
M  V30 10 1 13 1
M  V30 11 1 14 7
M  V30 12 1 16 3
M  V30 13 2 16 15
M  V30 14 2 17 2
M  V30 15 1 17 6
M  V30 16 1 17 14
M  V30 17 1 18 4
M  V30 18 1 19 15
M  V30 19 2 20 10
M  V30 20 1 20 15
M  V30 21 1 21 18
M  V30 22 1 21 19
M  V30 23 1 22 2
M  V30 24 1 23 6
M  V30 25 1 24 7
M  V30 26 1 25 8
M  V30 27 1 26 9
M  V30 28 1 27 10
M  V30 29 1 28 11
M  V30 30 1 29 11
M  V30 31 1 30 11
M  V30 32 1 31 12
M  V30 33 1 32 13
M  V30 34 1 33 14
M  V30 35 1 34 14
M  V30 36 1 35 16
M  V30 37 1 36 18
M  V30 38 1 37 18
M  V30 39 1 38 19
M  V30 40 1 39 19
M  V30 41 1 40 20
M  V30 42 1 41 21
M  V30 43 1 42 21
M  V30 END BOND
M  V30 END CTAB
M  END
>  <i_epik_Tot_Q>  (1) 
0

>  <i_epik_Tot_abs_Q>  (1) 
0

>  <i_i_glide_confnum>  (1) 
34

>  <i_i_glide_lignum>  (1) 
152

>  <i_i_glide_posenum>  (1) 
214

>  <i_i_glide_rotatable_bonds>  (1) 
8

>  <i_lp_mmshare_version>  (1) 
72125

>  <i_m_source_file_index>  (1) 
85

>  <i_f3d_flags>  (1) 
0

>  <num_sample>  (1) 
100

>  <b_lp_Chiralities_Consistent>  (1) 
1

>  <r_epik_Charging_Adjusted_Penalty>  (1) 
0

>  <r_epik_Ionization_Penalty>  (1) 
0.0004542944529878683

>  <r_epik_Ionization_Penalty_Charging>  (1) 
0

>  <r_epik_Ionization_Penalty_Neutral>  (1) 
0.0004542944529878683

>  <r_epik_State_Penalty>  (1) 
-0

>  <r_glide_ring_energy>  (1) 
0

>  <r_i_docking_score>  (1) 
-4.7210089992127031

>  <r_i_glide_ecoul>  (1) 
-2.5196712226672968

>  <r_i_glide_eff_state_penalty>  (1) 
-0

>  <r_i_glide_einternal>  (1) 
1.5464346439142751

>  <r_i_glide_emodel>  (1) 
-47.420821191413438

>  <r_i_glide_emodel_strain>  (1) 
0.30839787696419663

>  <r_i_glide_energy>  (1) 
-36.906052356688114

>  <r_i_glide_erotb>  (1) 
2.7062369522687115

>  <r_i_glide_esite>  (1) 
-0.16962811035928935

>  <r_i_glide_evdw>  (1) 
-34.386381134020816

>  <r_i_glide_gscore>  (1) 
-4.7210089992127031

>  <r_i_glide_gscore_strain>  (1) 
0

>  <r_i_glide_hbond>  (1) 
0

>  <r_i_glide_ligand_efficiency>  (1) 
-0.22480995234346204

>  <r_i_glide_ligand_efficiency_ln>  (1) 
-1.1672599353584154

>  <r_i_glide_ligand_efficiency_sa>  (1) 
-0.62023361261146515

>  <r_i_glide_lipo>  (1) 
-2.9273434038962587

>  <r_i_glide_metal>  (1) 
-0

>  <r_i_glide_rewards>  (1) 
-2.233004697124731

>  <r_lp_Energy>  (1) 
14.408657

>  <r_lp_tautomer_probability>  (1) 
1

>  <s_epik_cmdline>  (1) 
J2VwaWtfcHl0aG9uJywgJy1waHQnLCAnMS4wJywgJy1waCcsICc3LjQnLCAnLXRuJywgJzgnLCAnLW1hJywgJzUwMCcsICctaW1hZScsICc8aW5maWxlLm1hZT4nLCAnLW9tYWUnLCAnPG91dGZpbGUubWFlPic=

>  <s_epik_input>  (1) 
W09IXWMxYyhbQ0gzXSlbY0hdYyhbY0hdW2NIXTEpW0NIMl1bQ0gyXVtDSDJdQyg9TylbTkhdW0NIMl1jMltjSF1bY0hdW2NIXVtjSF1bY0hdMg==

>  <s_glide_docking_method>  (1) 
confgen

>  <s_i_glide_gridfile>  (1) 
gpcr_drd2_6luq_protein_autoprepared_prepared

>  <s_lp_Force_Field>  (1) 
S-OPLS

>  <s_lp_Variant>  (1) 
DiffSBDD_84-1

>  <s_m_source_file>  (1) 
generated_generic_title2_ligand_DiffSBDD_2026-06-23_prepared.sdf

>  <GenAI_Model>  (1) 
DiffSBDD

>  <Protein>  (1) 
generic_title2

$$$$
DiffSBDD_64
     RDKit          3D

  0  0  0  0  0  0  0  0  0  0999 V3000
M  V30 BEGIN CTAB
M  V30 COUNTS 77 80 0 0 1
M  V30 BEGIN ATOM
M  V30 1 C 9.815570 6.384124 -10.911488 0
M  V30 2 C 4.612953 6.889566 -19.795770 0
M  V30 3 C 10.629918 7.524413 -8.841292 0 CFG=2
M  V30 4 C 6.315871 7.076212 -14.234480 0
M  V30 5 C 7.832817 7.692864 -21.392175 0
M  V30 6 C 9.687531 8.755953 -6.763976 0
M  V30 7 C 6.713559 5.756369 -13.583817 0 CFG=1
M  V30 8 O 4.595331 6.922179 -22.144030 0
M  V30 9 C 9.412047 6.272461 -7.163815 0
M  V30 10 C 10.883971 8.913228 -9.432937 0
M  V30 11 C 5.725724 6.834341 -15.626768 0
M  V30 12 C 7.033957 8.879281 -21.925124 0
M  V30 13 C 5.710054 8.774778 -21.172140 0
M  V30 14 C 7.993291 4.896747 -8.772425 0
M  V30 15 N 9.537794 6.759365 -9.493940 0 CFG=2 CHG=1
M  V30 16 C 8.523914 8.428724 -11.860802 0
M  V30 17 C 5.428983 7.262060 -21.049745 0 CFG=1
M  V30 18 C 10.331018 7.484336 -7.333014 0 CFG=1
M  V30 19 C 9.313897 5.634524 -8.553864 0 CFG=1
M  V30 20 C 7.718602 5.028835 -14.485640 0
M  V30 21 C 7.052654 4.780480 -15.842291 0
M  V30 22 C 5.271793 7.033243 -18.419047 0
M  V30 23 C 7.451208 5.756132 -18.838677 0
M  V30 24 C 7.172836 5.401316 -20.312729 0
M  V30 25 C 6.797312 6.560669 -21.263523 0 CFG=2
M  V30 26 S 7.249815 5.942698 -11.865973 0
M  V30 27 N 6.649399 6.058525 -16.506420 0 CFG=1 CHG=1
M  V30 28 C 6.203756 5.887226 -17.935268 0 CFG=1
M  V30 29 C 8.782591 6.913453 -11.928885 0 CFG=2
M  V30 30 H 9.868646 5.298625 -11.009451 0
M  V30 31 H 10.797294 6.751555 -11.211769 0
M  V30 32 H 3.775515 7.590224 -19.778086 0
M  V30 33 H 4.191401 5.887198 -19.891112 0
M  V30 34 H 11.547383 6.952113 -8.985977 0
M  V30 35 H 5.584692 7.589790 -13.609272 0
M  V30 36 H 7.180177 7.731082 -14.333305 0
M  V30 37 H 8.664008 7.427153 -22.045464 0
M  V30 38 H 8.251511 7.971460 -20.428151 0
M  V30 39 H 8.798126 9.048328 -7.326368 0
M  V30 40 H 9.385420 8.589972 -5.732857 0
M  V30 41 H 10.389651 9.589655 -6.763082 0
M  V30 42 H 5.814686 5.142935 -13.509707 0
M  V30 43 H 4.560730 5.981359 -22.222763 0
M  V30 44 H 8.423632 6.580292 -6.818746 0
M  V30 45 H 9.805855 5.590245 -6.415160 0
M  V30 46 H 11.633288 9.457891 -8.858366 0
M  V30 47 H 11.265624 8.831875 -10.446048 0
M  V30 48 H 9.974295 9.509076 -9.454693 0
M  V30 49 H 5.514305 7.824080 -16.030325 0
M  V30 50 H 4.782828 6.291522 -15.555667 0
M  V30 51 H 6.863325 8.764940 -22.997376 0
M  V30 52 H 7.533468 9.834855 -21.763735 0
M  V30 53 H 4.904541 9.326313 -21.659478 0
M  V30 54 H 5.840189 9.218819 -20.186315 0
M  V30 55 H 7.808720 4.165349 -7.985025 0
M  V30 56 H 7.157660 5.590135 -8.788940 0
M  V30 57 H 7.992728 4.372615 -9.723559 0
M  V30 58 H 9.375938 8.978524 -12.250085 0
M  V30 59 H 7.668777 8.722727 -12.458860 0
M  V30 60 H 8.320642 8.789288 -10.854707 0
M  V30 61 H 11.262687 7.307195 -6.793141 0
M  V30 62 H 10.136427 4.923614 -8.657820 0
M  V30 63 H 8.008680 4.080064 -14.032638 0
M  V30 64 H 8.633358 5.600716 -14.632280 0
M  V30 65 H 6.175412 4.180920 -15.615171 0
M  V30 66 H 7.713235 4.182261 -16.469756 0
M  V30 67 H 4.412398 7.092105 -17.751231 0
M  V30 68 H 5.775297 7.990025 -18.344987 0
M  V30 69 H 8.081330 4.952761 -18.459614 0
M  V30 70 H 8.070629 6.646987 -18.755199 0
M  V30 71 H 6.413253 4.620476 -20.366494 0
M  V30 72 H 8.075077 4.939876 -20.716410 0
M  V30 73 H 6.776815 6.103999 -22.256369 0
M  V30 74 H 5.632440 4.960465 -17.997034 0
M  V30 75 H 9.219579 6.714668 -12.902006 0
M  V30 76 H 7.487102 6.620515 -16.561320 0
M  V30 77 H 8.683074 7.315169 -9.480110 0
M  V30 END ATOM
M  V30 BEGIN BOND
M  V30 1 1 7 4
M  V30 2 1 10 3
M  V30 3 1 11 4
M  V30 4 1 12 5
M  V30 5 1 13 12
M  V30 6 1 15 1
M  V30 7 1 15 3
M  V30 8 1 17 2
M  V30 9 1 17 8 CFG=3
M  V30 10 1 17 13
M  V30 11 1 18 3
M  V30 12 1 18 6
M  V30 13 1 18 9
M  V30 14 1 19 9
M  V30 15 1 19 14
M  V30 16 1 19 15
M  V30 17 1 20 7
M  V30 18 1 21 20
M  V30 19 1 22 2
M  V30 20 1 24 23
M  V30 21 1 25 5
M  V30 22 1 25 17
M  V30 23 1 25 24
M  V30 24 1 26 7
M  V30 25 1 27 11
M  V30 26 1 27 21
M  V30 27 1 28 22
M  V30 28 1 28 23
M  V30 29 1 28 27
M  V30 30 1 29 1
M  V30 31 1 29 16
M  V30 32 1 29 26
M  V30 33 1 30 1
M  V30 34 1 31 1
M  V30 35 1 32 2
M  V30 36 1 33 2
M  V30 37 1 3 34 CFG=1
M  V30 38 1 35 4
M  V30 39 1 36 4
M  V30 40 1 37 5
M  V30 41 1 38 5
M  V30 42 1 39 6
M  V30 43 1 40 6
M  V30 44 1 41 6
M  V30 45 1 7 42 CFG=1
M  V30 46 1 43 8
M  V30 47 1 44 9
M  V30 48 1 45 9
M  V30 49 1 46 10
M  V30 50 1 47 10
M  V30 51 1 48 10
M  V30 52 1 49 11
M  V30 53 1 50 11
M  V30 54 1 51 12
M  V30 55 1 52 12
M  V30 56 1 53 13
M  V30 57 1 54 13
M  V30 58 1 55 14
M  V30 59 1 56 14
M  V30 60 1 57 14
M  V30 61 1 58 16
M  V30 62 1 59 16
M  V30 63 1 60 16
M  V30 64 1 18 61 CFG=1
M  V30 65 1 19 62 CFG=1
M  V30 66 1 63 20
M  V30 67 1 64 20
M  V30 68 1 65 21
M  V30 69 1 66 21
M  V30 70 1 67 22
M  V30 71 1 68 22
M  V30 72 1 69 23
M  V30 73 1 70 23
M  V30 74 1 71 24
M  V30 75 1 72 24
M  V30 76 1 25 73 CFG=3
M  V30 77 1 28 74 CFG=1
M  V30 78 1 29 75 CFG=3
M  V30 79 1 27 76 CFG=3
M  V30 80 1 15 77 CFG=3
M  V30 END BOND
M  V30 END CTAB
M  END
>  <i_epik_Tot_Q>  (1) 
2

>  <i_epik_Tot_abs_Q>  (1) 
2

>  <i_i_glide_confnum>  (1) 
100

>  <i_i_glide_lignum>  (1) 
105

>  <i_i_glide_posenum>  (1) 
378

>  <i_i_glide_rotatable_bonds>  (1) 
6

>  <i_lp_mmshare_version>  (1) 
72125

>  <i_m_source_file_index>  (1) 
65

>  <i_f3d_flags>  (1) 
0

>  <num_sample>  (1) 
100

>  <b_lp_Chiralities_Consistent>  (1) 
1

>  <r_epik_Charging_Adjusted_Penalty>  (1) 
0.010385271147369776

>  <r_epik_Ionization_Penalty>  (1) 
0.010385491156522124

>  <r_epik_Ionization_Penalty_Charging>  (1) 
0.010385271147369776

>  <r_epik_Ionization_Penalty_Neutral>  (1) 
2.2000915234807092e-07

>  <r_epik_State_Penalty>  (1) 
-0

>  <r_glide_ring_energy>  (1) 
0

>  <r_i_docking_score>  (1) 
-4.7185938478180693

>  <r_i_glide_ecoul>  (1) 
-2.7639209013102404

>  <r_i_glide_eff_state_penalty>  (1) 
-0

>  <r_i_glide_einternal>  (1) 
31.291738822491567

>  <r_i_glide_emodel>  (1) 
-19.323955621775781

>  <r_i_glide_emodel_strain>  (1) 
0.054894821471592081

>  <r_i_glide_energy>  (1) 
-30.850922328589483

>  <r_i_glide_erotb>  (1) 
0.5496323063178965

>  <r_i_glide_esite>  (1) 
-0.10000000000000001

>  <r_i_glide_evdw>  (1) 
-28.087001427279244

>  <r_i_glide_gscore>  (1) 
-4.7185938478180693

>  <r_i_glide_gscore_strain>  (1) 
0

>  <r_i_glide_hbond>  (1) 
-0.20000000000000001

>  <r_i_glide_ligand_efficiency>  (1) 
-0.16271013268338169

>  <r_i_glide_ligand_efficiency_ln>  (1) 
-1.0804383379343192

>  <r_i_glide_ligand_efficiency_sa>  (1) 
-0.4998970783527304

>  <r_i_glide_lipo>  (1) 
-1.7361386975754662

>  <r_i_glide_metal>  (1) 
-0

>  <r_i_glide_rewards>  (1) 
-1.4131492500000007

>  <r_lp_Energy>  (1) 
49.546199999999999

>  <r_lp_tautomer_probability>  (1) 
1

>  <s_epik_cmdline>  (1) 
J2VwaWtfcHl0aG9uJywgJy1waHQnLCAnMS4wJywgJy1waCcsICc3LjQnLCAnLXRuJywgJzgnLCAnLW1hJywgJzUwMCcsICctaW1hZScsICc8aW5maWxlLm1hZT4nLCAnLW9tYWUnLCAnPG91dGZpbGUubWFlPic=

>  <s_epik_input>  (1) 
W0NIM11bQ0BIXTFbQ0gyXVtDQEBIXShbQ0gzXSlOKFtDQEhdMVtDSDNdKVtDSDJdW0NASF0oW0NIM10pU1tDSF0yW0NIMl1bQ0gyXU4oW0NIMl1bQ0gyXTIpW0NAQEhdKFtDSDJdW0NIMl0zKVtDSDJdW0NIMl1bQ0BASF0oW0NAQF0zNFtPSF0pW0NIMl1bQ0gyXVtDSDJdNA==

>  <s_glide_docking_method>  (1) 
confgen

>  <s_i_glide_gridfile>  (1) 
gpcr_drd2_6luq_protein_autoprepared_prepared

>  <s_lp_Force_Field>  (1) 
S-OPLS

>  <s_lp_Variant>  (1) 
DiffSBDD_64-4

>  <s_m_source_file>  (1) 
generated_generic_title2_ligand_DiffSBDD_2026-06-23_prepared.sdf

>  <GenAI_Model>  (1) 
DiffSBDD

>  <Protein>  (1) 
generic_title2

$$$$
DiffSBDD_84
     RDKit          3D

  0  0  0  0  0  0  0  0  0  0999 V3000
M  V30 BEGIN CTAB
M  V30 COUNTS 42 43 0 0 1
M  V30 BEGIN ATOM
M  V30 1 C 7.552208 4.221280 -14.224725 0
M  V30 2 C 11.494060 6.790545 -4.409945 0
M  V30 3 C 8.121788 3.454907 -13.185406 0
M  V30 4 C 10.991269 7.695660 -8.679970 0
M  V30 5 O 12.175381 7.590234 -8.367048 0
M  V30 6 C 11.023073 8.853181 -5.631216 0
M  V30 7 N 9.981416 7.293738 -7.886532 0
M  V30 8 C 12.175406 7.533893 -3.422685 0
M  V30 9 C 12.278541 8.933969 -3.542903 0
M  V30 10 C 7.576420 5.626643 -14.158924 0
M  V30 11 C 8.082368 1.939258 -13.247527 0
M  V30 12 C 11.700478 9.590230 -4.648284 0
M  V30 13 O 6.975410 3.602893 -15.292673 0
M  V30 14 C 10.197178 6.640766 -6.593115 0
M  V30 15 C 8.747461 5.508849 -12.020256 0
M  V30 16 C 8.723712 4.100316 -12.085783 0
M  V30 17 C 10.922295 7.449261 -5.520810 0
M  V30 18 C 10.604074 8.308735 -10.022333 0
M  V30 19 C 9.377035 6.201898 -10.826024 0
M  V30 20 C 8.168609 6.270679 -13.057090 0
M  V30 21 C 10.446175 7.265810 -11.149857 0
M  V30 22 H 11.415402 5.717154 -4.318942 0
M  V30 23 H 10.583031 9.364852 -6.472779 0
M  V30 24 H 9.025764 7.415422 -8.202277 0
M  V30 25 H 12.616353 7.029758 -2.575281 0
M  V30 26 H 12.799633 9.504678 -2.787150 0
M  V30 27 H 7.136685 6.211695 -14.953159 0
M  V30 28 H 8.575410 1.499843 -12.385030 0
M  V30 29 H 7.049878 1.589072 -13.249833 0
M  V30 30 H 8.575381 1.568999 -14.145463 0
M  V30 31 H 11.775303 10.661642 -4.745237 0
M  V30 32 H 6.990210 2.661074 -15.223348 0
M  V30 33 H 9.221294 6.356610 -6.198573 0
M  V30 34 H 10.743310 5.712143 -6.765759 0
M  V30 35 H 9.160913 3.515030 -11.289379 0
M  V30 36 H 11.375325 9.030263 -10.294846 0
M  V30 37 H 9.675462 8.868216 -9.901725 0
M  V30 38 H 8.575407 6.687692 -10.284557 0
M  V30 39 H 9.775433 5.453931 -10.139999 0
M  V30 40 H 8.177545 7.349256 -13.006572 0
M  V30 41 H 11.396616 6.790231 -11.391228 0
M  V30 42 H 10.161369 7.818748 -12.043840 0
M  V30 END ATOM
M  V30 BEGIN BOND
M  V30 1 2 3 1
M  V30 2 2 5 4
M  V30 3 1 7 4
M  V30 4 1 8 2
M  V30 5 2 9 8
M  V30 6 1 10 1
M  V30 7 1 11 3
M  V30 8 2 12 6
M  V30 9 1 12 9
M  V30 10 1 13 1
M  V30 11 1 14 7
M  V30 12 1 16 3
M  V30 13 2 16 15
M  V30 14 2 17 2
M  V30 15 1 17 6
M  V30 16 1 17 14
M  V30 17 1 18 4
M  V30 18 1 19 15
M  V30 19 2 20 10
M  V30 20 1 20 15
M  V30 21 1 21 18
M  V30 22 1 21 19
M  V30 23 1 22 2
M  V30 24 1 23 6
M  V30 25 1 24 7
M  V30 26 1 25 8
M  V30 27 1 26 9
M  V30 28 1 27 10
M  V30 29 1 28 11
M  V30 30 1 29 11
M  V30 31 1 30 11
M  V30 32 1 31 12
M  V30 33 1 32 13
M  V30 34 1 33 14
M  V30 35 1 34 14
M  V30 36 1 35 16
M  V30 37 1 36 18
M  V30 38 1 37 18
M  V30 39 1 38 19
M  V30 40 1 39 19
M  V30 41 1 40 20
M  V30 42 1 41 21
M  V30 43 1 42 21
M  V30 END BOND
M  V30 END CTAB
M  END
>  <i_epik_Tot_Q>  (1) 
0

>  <i_epik_Tot_abs_Q>  (1) 
0

>  <i_i_glide_confnum>  (1) 
24

>  <i_i_glide_lignum>  (1) 
152

>  <i_i_glide_posenum>  (1) 
313

>  <i_i_glide_rotatable_bonds>  (1) 
8

>  <i_lp_mmshare_version>  (1) 
72125

>  <i_m_source_file_index>  (1) 
85

>  <i_f3d_flags>  (1) 
0

>  <num_sample>  (1) 
100

>  <b_lp_Chiralities_Consistent>  (1) 
1

>  <r_epik_Charging_Adjusted_Penalty>  (1) 
0

>  <r_epik_Ionization_Penalty>  (1) 
0.0004542944529878683

>  <r_epik_Ionization_Penalty_Charging>  (1) 
0

>  <r_epik_Ionization_Penalty_Neutral>  (1) 
0.0004542944529878683

>  <r_epik_State_Penalty>  (1) 
-0

>  <r_glide_ring_energy>  (1) 
0

>  <r_i_docking_score>  (1) 
-4.7040230606420126

>  <r_i_glide_ecoul>  (1) 
-3.8271821972014792

>  <r_i_glide_eff_state_penalty>  (1) 
-0

>  <r_i_glide_einternal>  (1) 
2.52889301325584

>  <r_i_glide_emodel>  (1) 
-47.251624297156972

>  <r_i_glide_emodel_strain>  (1) 
0.9206779864397916

>  <r_i_glide_energy>  (1) 
-37.882087927804868

>  <r_i_glide_erotb>  (1) 
2.7062369522687115

>  <r_i_glide_esite>  (1) 
-0.052678704654338548

>  <r_i_glide_evdw>  (1) 
-34.054905730603387

>  <r_i_glide_gscore>  (1) 
-4.7040230606420126

>  <r_i_glide_gscore_strain>  (1) 
0

>  <r_i_glide_hbond>  (1) 
-0.0026692451047001689

>  <r_i_glide_ligand_efficiency>  (1) 
-0.22400109812581012

>  <r_i_glide_ligand_efficiency_ln>  (1) 
-1.163060196370133

>  <r_i_glide_ligand_efficiency_sa>  (1) 
-0.61800204515521739

>  <r_i_glide_lipo>  (1) 
-2.8425311441374475

>  <r_i_glide_metal>  (1) 
-0

>  <r_i_glide_rewards>  (1) 
-2.2355583029038466

>  <r_lp_Energy>  (1) 
14.408657

>  <r_lp_tautomer_probability>  (1) 
1

>  <s_epik_cmdline>  (1) 
J2VwaWtfcHl0aG9uJywgJy1waHQnLCAnMS4wJywgJy1waCcsICc3LjQnLCAnLXRuJywgJzgnLCAnLW1hJywgJzUwMCcsICctaW1hZScsICc8aW5maWxlLm1hZT4nLCAnLW9tYWUnLCAnPG91dGZpbGUubWFlPic=

>  <s_epik_input>  (1) 
W09IXWMxYyhbQ0gzXSlbY0hdYyhbY0hdW2NIXTEpW0NIMl1bQ0gyXVtDSDJdQyg9TylbTkhdW0NIMl1jMltjSF1bY0hdW2NIXVtjSF1bY0hdMg==

>  <s_glide_docking_method>  (1) 
confgen

>  <s_i_glide_gridfile>  (1) 
gpcr_drd2_6luq_protein_autoprepared_prepared

>  <s_lp_Force_Field>  (1) 
S-OPLS

>  <s_lp_Variant>  (1) 
DiffSBDD_84-1

>  <s_m_source_file>  (1) 
generated_generic_title2_ligand_DiffSBDD_2026-06-23_prepared.sdf

>  <GenAI_Model>  (1) 
DiffSBDD

>  <Protein>  (1) 
generic_title2

$$$$
DiffSBDD_65
     RDKit          3D

  0  0  0  0  0  0  0  0  0  0999 V3000
M  V30 BEGIN CTAB
M  V30 COUNTS 66 68 0 0 1
M  V30 BEGIN ATOM
M  V30 1 C 9.606737 6.199355 -11.237662 0 CFG=2
M  V30 2 N 8.644815 4.948807 -15.775748 0
M  V30 3 C 9.775591 6.809151 -9.812230 0
M  V30 4 C 7.301133 5.165450 -20.146565 0
M  V30 5 C 5.689673 8.257718 -22.540446 0
M  V30 6 C 7.102456 6.793225 -21.913938 0 CFG=1
M  V30 7 O 10.544579 6.792373 -12.113329 0
M  V30 8 O 10.389772 4.400425 -17.129063 0
M  V30 9 O 8.159277 4.708327 -19.152863 0
M  V30 10 O 7.790431 7.682434 -11.985024 0
M  V30 11 C 8.165064 6.334783 -11.801861 0 CFG=1
M  V30 12 C 7.668386 5.929378 -23.058296 0
M  V30 13 C 9.065042 5.968758 -8.725978 0
M  V30 14 O 7.775392 10.390227 -23.185001 0
M  V30 15 C 4.624358 5.858520 -22.315469 0
M  V30 16 C 7.482169 5.577242 -15.896920 0
M  V30 17 F 9.375418 8.080659 -9.784415 0
M  V30 18 C 6.419515 3.864289 -13.284054 0
M  V30 19 C 8.458731 5.645367 -18.125856 0 CFG=1
M  V30 20 C 6.750206 5.352682 -13.453962 0 CFG=2
M  V30 21 C 6.537831 5.821984 -14.892151 0
M  V30 22 N 5.375699 6.483335 -15.154100 0
M  V30 23 O 8.080055 5.589016 -12.981115 0
M  V30 24 C 9.200357 5.797508 -23.056412 0
M  V30 25 F 11.071382 6.790219 -9.496010 0
M  V30 26 C 6.133373 6.690842 -17.487071 0
M  V30 27 C 5.561784 6.937529 -21.782021 0 CFG=2
M  V30 28 C 7.295220 5.989918 -17.154578 0
M  V30 29 C 8.167173 9.050127 -22.956184 0
M  V30 30 O 9.102311 6.599883 -7.463339 0
M  V30 31 C 9.289763 4.916411 -16.944949 0
M  V30 32 O 7.694806 6.403873 -20.670194 0
M  V30 33 C 5.193168 6.917172 -16.446427 0
M  V30 34 C 7.143045 8.343615 -22.060624 0 CFG=1
M  V30 35 H 9.828542 5.131953 -11.195199 0
M  V30 36 H 8.977445 4.564659 -14.902634 0
M  V30 37 H 7.316455 4.392453 -20.912416 0
M  V30 38 H 6.284306 5.213899 -19.760242 0
M  V30 39 H 5.045531 9.059400 -22.177938 0
M  V30 40 H 5.607013 8.140442 -23.622348 0
M  V30 41 H 10.332079 6.502496 -12.987698 0
M  V30 42 H 7.521081 7.990202 -11.115358 0
M  V30 43 H 7.453607 5.908711 -11.092995 0
M  V30 44 H 7.235147 4.929771 -23.040812 0
M  V30 45 H 7.353348 6.347285 -24.011013 0
M  V30 46 H 9.536937 4.988827 -8.642392 0
M  V30 47 H 8.018674 5.790607 -8.964802 0
M  V30 48 H 8.399419 10.803517 -23.782865 0
M  V30 49 H 4.842269 5.614070 -23.355194 0
M  V30 50 H 4.703345 4.938413 -21.736104 0
M  V30 51 H 3.586257 6.186561 -22.273455 0
M  V30 52 H 5.390886 3.658171 -13.580684 0
M  V30 53 H 7.074715 3.239065 -13.890668 0
M  V30 54 H 6.532460 3.555076 -12.244795 0
M  V30 55 H 8.981350 6.534230 -18.480999 0
M  V30 56 H 6.031159 5.906371 -12.844970 0
M  V30 57 H 9.535807 5.199488 -23.903027 0
M  V30 58 H 9.697177 6.763717 -23.120628 0
M  V30 59 H 9.554188 5.304502 -22.150674 0
M  V30 60 H 5.958694 7.050962 -18.488781 0
M  V30 61 H 5.304718 7.176467 -20.748383 0
M  V30 62 H 9.154885 9.044731 -22.494923 0
M  V30 63 H 8.258502 8.555770 -23.921990 0
M  V30 64 H 8.356937 7.190178 -7.430682 0
M  V30 65 H 4.278059 7.454580 -16.646325 0
M  V30 66 H 7.146046 8.793616 -21.064699 0
M  V30 END ATOM
M  V30 BEGIN BOND
M  V30 1 1 3 1
M  V30 2 1 7 1
M  V30 3 1 9 4
M  V30 4 1 11 1
M  V30 5 1 11 10
M  V30 6 1 12 6
M  V30 7 1 13 3
M  V30 8 1 16 2
M  V30 9 1 17 3
M  V30 10 1 19 9
M  V30 11 1 20 18
M  V30 12 1 21 16
M  V30 13 1 21 20
M  V30 14 2 22 21
M  V30 15 1 23 11
M  V30 16 1 23 20
M  V30 17 1 24 12
M  V30 18 1 25 3
M  V30 19 1 27 5
M  V30 20 1 27 6
M  V30 21 1 27 15
M  V30 22 2 28 16
M  V30 23 1 28 19
M  V30 24 1 28 26
M  V30 25 1 29 14
M  V30 26 1 30 13
M  V30 27 1 31 2
M  V30 28 2 31 8
M  V30 29 1 31 19
M  V30 30 1 32 4
M  V30 31 1 6 32 CFG=1
M  V30 32 1 33 22
M  V30 33 2 33 26
M  V30 34 1 34 5
M  V30 35 1 34 6
M  V30 36 1 34 29
M  V30 37 1 1 35 CFG=1
M  V30 38 1 36 2
M  V30 39 1 37 4
M  V30 40 1 38 4
M  V30 41 1 39 5
M  V30 42 1 40 5
M  V30 43 1 41 7
M  V30 44 1 42 10
M  V30 45 1 11 43 CFG=1
M  V30 46 1 44 12
M  V30 47 1 45 12
M  V30 48 1 46 13
M  V30 49 1 47 13
M  V30 50 1 48 14
M  V30 51 1 49 15
M  V30 52 1 50 15
M  V30 53 1 51 15
M  V30 54 1 52 18
M  V30 55 1 53 18
M  V30 56 1 54 18
M  V30 57 1 19 55 CFG=3
M  V30 58 1 20 56 CFG=1
M  V30 59 1 57 24
M  V30 60 1 58 24
M  V30 61 1 59 24
M  V30 62 1 60 26
M  V30 63 1 27 61 CFG=1
M  V30 64 1 62 29
M  V30 65 1 63 29
M  V30 66 1 64 30
M  V30 67 1 65 33
M  V30 68 1 34 66 CFG=1
M  V30 END BOND
M  V30 END CTAB
M  END
>  <i_epik_Tot_Q>  (1) 
0

>  <i_epik_Tot_abs_Q>  (1) 
0

>  <i_i_glide_confnum>  (1) 
2755

>  <i_i_glide_lignum>  (1) 
107

>  <i_i_glide_posenum>  (1) 
217

>  <i_i_glide_rotatable_bonds>  (1) 
16

>  <i_lp_mmshare_version>  (1) 
72125

>  <i_m_source_file_index>  (1) 
66

>  <i_f3d_flags>  (1) 
0

>  <num_sample>  (1) 
100

>  <b_lp_Chiralities_Consistent>  (1) 
1

>  <r_epik_Charging_Adjusted_Penalty>  (1) 
0

>  <r_epik_Ionization_Penalty>  (1) 
0.020984920231991385

>  <r_epik_Ionization_Penalty_Charging>  (1) 
0

>  <r_epik_Ionization_Penalty_Neutral>  (1) 
0.020984920231991385

>  <r_epik_State_Penalty>  (1) 
-0

>  <r_glide_ring_energy>  (1) 
0

>  <r_i_docking_score>  (1) 
-4.7035485223127971

>  <r_i_glide_ecoul>  (1) 
-12.22378975292048

>  <r_i_glide_eff_state_penalty>  (1) 
-0

>  <r_i_glide_einternal>  (1) 
13.56364788628006

>  <r_i_glide_emodel>  (1) 
-43.646735164813911

>  <r_i_glide_emodel_strain>  (1) 
0.29851688594243342

>  <r_i_glide_energy>  (1) 
-41.048143988276571

>  <r_i_glide_erotb>  (1) 
0.93044466926125857

>  <r_i_glide_esite>  (1) 
-0.17005414161256474

>  <r_i_glide_evdw>  (1) 
-28.824354235356093

>  <r_i_glide_gscore>  (1) 
-4.7035485223127971

>  <r_i_glide_gscore_strain>  (1) 
0

>  <r_i_glide_hbond>  (1) 
-0.3942389446486636

>  <r_i_glide_ligand_efficiency>  (1) 
-0.13833966242096463

>  <r_i_glide_ligand_efficiency_ln>  (1) 
-1.0391457986461785

>  <r_i_glide_ligand_efficiency_sa>  (1) 
-0.44816680296370021

>  <r_i_glide_lipo>  (1) 
-1.4391070003659145

>  <r_i_glide_metal>  (1) 
-0

>  <r_i_glide_rewards>  (1) 
-0.3558069302410351

>  <r_lp_Energy>  (1) 
34.219946999999998

>  <r_lp_tautomer_probability>  (1) 
1

>  <s_epik_Chemistry_Notes>  (1) 
This compound contains an acetal/aminal-like group ( X-CH(R)-Y where X, Y are N, S, or O) that may be acid/base labile, releasing an aldehyde.

>  <s_epik_cmdline>  (1) 
J2VwaWtfcHl0aG9uJywgJy1waHQnLCAnMS4wJywgJy1waCcsICc3LjQnLCAnLXRuJywgJzgnLCAnLW1hJywgJzUwMCcsICctaW1hZScsICc8aW5maWxlLm1hZT4nLCAnLW9tYWUnLCAnPG91dGZpbGUubWFlPic=

>  <s_epik_input>  (1) 
W09IXVtDSDJdQyhGKShGKVtDQEhdKFtPSF0pW0NAQEhdKFtPSF0pT1tDQEhdKFtDSDNdKWMxbltjSF1bY0hdYyhjMTIpW0NASF0oQyg9TylbTkhdMilPW0NIMl1PW0NAQF0zKFtDSDJdW0NIM10pW0NASF0oW0NIM10pW0NIMl1bQ0BASF0zW0NIMl1bT0hd

>  <s_glide_docking_method>  (1) 
confgen

>  <s_i_glide_gridfile>  (1) 
gpcr_drd2_6luq_protein_autoprepared_prepared

>  <s_lp_Force_Field>  (1) 
S-OPLS

>  <s_lp_Variant>  (1) 
DiffSBDD_65-2

>  <s_m_source_file>  (1) 
generated_generic_title2_ligand_DiffSBDD_2026-06-23_prepared.sdf

>  <GenAI_Model>  (1) 
DiffSBDD

>  <Protein>  (1) 
generic_title2

$$$$
DiffSBDD_19
     RDKit          3D

  0  0  0  0  0  0  0  0  0  0999 V3000
M  V30 BEGIN CTAB
M  V30 COUNTS 40 43 0 0 1
M  V30 BEGIN ATOM
M  V30 1 C 7.190344 1.644534 -14.802707 0 CFG=1
M  V30 2 C 8.839395 6.916246 -11.497376 0 CFG=1
M  V30 3 N 7.499963 4.471079 -12.661882 0
M  V30 4 C 10.953237 7.898285 -8.637082 0 CFG=2
M  V30 5 O 8.174278 1.012964 -13.965936 0
M  V30 6 C 9.426238 5.564843 -11.859122 0 CFG=1
M  V30 7 C 6.646928 3.787355 -13.462728 0
M  V30 8 C 9.439909 5.934477 -8.600519 0
M  V30 9 C 10.277890 6.715884 -7.968143 0
M  V30 10 C 6.809677 0.743179 -13.638289 0
M  V30 11 F 8.107734 1.612624 -16.974283 0
M  V30 12 C 8.340187 5.650028 -10.797156 0 CFG=2
M  V30 13 C 7.211938 3.178369 -14.761010 0
M  V30 14 C 9.616920 8.100152 -10.893433 0
M  V30 15 C 10.977888 7.880641 -10.187463 0
M  V30 16 C 7.127497 1.110841 -16.222856 0
M  V30 17 C 7.086671 5.013930 -11.376737 0
M  V30 18 F 12.212604 7.990754 -8.210107 0
M  V30 19 C 8.638052 5.259011 -9.382830 0
M  V30 20 C 8.898594 4.711930 -12.989765 0
M  V30 21 O 5.458372 3.632262 -13.183825 0
M  V30 22 H 8.120940 7.303759 -12.217925 0
M  V30 23 H 10.461059 8.802407 -8.281459 0
M  V30 24 H 10.454173 5.374133 -11.585396 0
M  V30 25 H 10.528553 6.539671 -6.932616 0
M  V30 26 H 6.491500 1.159133 -12.685119 0
M  V30 27 H 6.493510 -0.278613 -13.842807 0
M  V30 28 H 6.575411 3.551191 -15.561807 0
M  V30 29 H 8.210115 3.510645 -15.031001 0
M  V30 30 H 8.964879 8.649473 -10.219351 0
M  V30 31 H 9.776199 8.784890 -11.726553 0
M  V30 32 H 11.612676 8.721393 -10.465764 0
M  V30 33 H 11.501406 7.012657 -10.572304 0
M  V30 34 H 7.218989 0.023721 -16.234347 0
M  V30 35 H 6.180508 1.384845 -16.688513 0
M  V30 36 H 6.304194 5.766243 -11.489602 0
M  V30 37 H 6.707360 4.219633 -10.731555 0
M  V30 38 H 8.119215 4.390371 -9.007658 0
M  V30 39 H 9.025034 5.249591 -13.930359 0
M  V30 40 H 9.454101 3.773505 -13.022954 0
M  V30 END ATOM
M  V30 BEGIN BOND
M  V30 1 1 5 1
M  V30 2 1 6 2
M  V30 3 1 7 3
M  V30 4 1 9 4
M  V30 5 2 9 8
M  V30 6 1 10 1
M  V30 7 1 10 5
M  V30 8 1 12 2
M  V30 9 1 12 6
M  V30 10 1 1 13 CFG=3
M  V30 11 1 13 7
M  V30 12 1 14 2
M  V30 13 1 15 4
M  V30 14 1 15 14
M  V30 15 1 16 1
M  V30 16 1 16 11
M  V30 17 1 17 3
M  V30 18 1 12 17 CFG=3
M  V30 19 1 18 4
M  V30 20 2 19 8
M  V30 21 1 19 12
M  V30 22 1 20 3
M  V30 23 1 20 6
M  V30 24 2 21 7
M  V30 25 1 2 22 CFG=3
M  V30 26 1 4 23 CFG=3
M  V30 27 1 6 24 CFG=1
M  V30 28 1 25 9
M  V30 29 1 26 10
M  V30 30 1 27 10
M  V30 31 1 28 13
M  V30 32 1 29 13
M  V30 33 1 30 14
M  V30 34 1 31 14
M  V30 35 1 32 15
M  V30 36 1 33 15
M  V30 37 1 34 16
M  V30 38 1 35 16
M  V30 39 1 36 17
M  V30 40 1 37 17
M  V30 41 1 38 19
M  V30 42 1 39 20
M  V30 43 1 40 20
M  V30 END BOND
M  V30 END CTAB
M  END
>  <i_epik_Tot_Q>  (1) 
0

>  <i_epik_Tot_abs_Q>  (1) 
0

>  <i_i_glide_confnum>  (1) 
6

>  <i_i_glide_lignum>  (1) 
36

>  <i_i_glide_posenum>  (1) 
322

>  <i_i_glide_rotatable_bonds>  (1) 
4

>  <i_lp_mmshare_version>  (1) 
72125

>  <i_m_source_file_index>  (1) 
20

>  <i_f3d_flags>  (1) 
0

>  <num_sample>  (1) 
100

>  <b_lp_Chiralities_Consistent>  (1) 
1

>  <r_epik_Charging_Adjusted_Penalty>  (1) 
0

>  <r_epik_Ionization_Penalty>  (1) 
4.7432699255447401e-09

>  <r_epik_Ionization_Penalty_Charging>  (1) 
0

>  <r_epik_Ionization_Penalty_Neutral>  (1) 
4.7432699255447401e-09

>  <r_epik_State_Penalty>  (1) 
-0

>  <r_glide_ring_energy>  (1) 
0

>  <r_i_docking_score>  (1) 
-4.6960347389033767

>  <r_i_glide_ecoul>  (1) 
-0.78946779014848578

>  <r_i_glide_eff_state_penalty>  (1) 
-0

>  <r_i_glide_einternal>  (1) 
1.5270596501908718

>  <r_i_glide_emodel>  (1) 
-34.419402650146623

>  <r_i_glide_emodel_strain>  (1) 
0.0080406876973313501

>  <r_i_glide_energy>  (1) 
-27.614519631819551

>  <r_i_glide_erotb>  (1) 
0.62952724297124418

>  <r_i_glide_esite>  (1) 
0

>  <r_i_glide_evdw>  (1) 
-26.825051841671065

>  <r_i_glide_gscore>  (1) 
-4.6960347389033767

>  <r_i_glide_gscore_strain>  (1) 
0

>  <r_i_glide_hbond>  (1) 
0

>  <r_i_glide_ligand_efficiency>  (1) 
-0.22362070185254174

>  <r_i_glide_ligand_efficiency_ln>  (1) 
-1.1610850999621791

>  <r_i_glide_ligand_efficiency_sa>  (1) 
-0.61695256068029192

>  <r_i_glide_lipo>  (1) 
-1.0615560500448895

>  <r_i_glide_metal>  (1) 
-0

>  <r_i_glide_rewards>  (1) 
-2.804333171223905

>  <r_lp_Energy>  (1) 
2.731881

>  <r_lp_tautomer_probability>  (1) 
1

>  <s_epik_cmdline>  (1) 
J2VwaWtfcHl0aG9uJywgJy1waHQnLCAnMS4wJywgJy1waCcsICc3LjQnLCAnLXRuJywgJzgnLCAnLW1hJywgJzUwMCcsICctaW1hZScsICc8aW5maWxlLm1hZT4nLCAnLW9tYWUnLCAnPG91dGZpbGUubWFlPic=

>  <s_epik_input>  (1) 
W0NIMl0xT0MxKFtDSDJdRilbQ0gyXUMoPU8pTihbQ0gyXTIpW0NIMl1bQ0BIXTNbQ0BASF0oQzIzNClbQ0gyXVtDSDJdW0NASF0oRilbQ0hdPUM9W0NIXTQ=

>  <s_glide_docking_method>  (1) 
confgen

>  <s_i_glide_gridfile>  (1) 
gpcr_drd2_6luq_protein_autoprepared_prepared

>  <s_lp_Force_Field>  (1) 
S-OPLS

>  <s_lp_Variant>  (1) 
DiffSBDD_19-1

>  <s_m_source_file>  (1) 
generated_generic_title2_ligand_DiffSBDD_2026-06-23_prepared.sdf

>  <GenAI_Model>  (1) 
DiffSBDD

>  <Protein>  (1) 
generic_title2

$$$$
DiffSBDD_39
     RDKit          3D

  0  0  0  0  0  0  0  0  0  0999 V3000
M  V30 BEGIN CTAB
M  V30 COUNTS 48 49 0 0 1
M  V30 BEGIN ATOM
M  V30 1 C 10.996778 7.655640 -5.393170 0
M  V30 2 C 12.365568 8.292453 -2.626523 0
M  V30 3 O 7.375414 7.126779 -14.009547 0
M  V30 4 C 6.888695 7.453345 -12.732247 0
M  V30 5 C 5.396996 7.590216 -12.751217 0
M  V30 6 C 9.302198 5.763088 -9.233584 0
M  V30 7 C 12.175403 7.087796 -3.233290 0
M  V30 8 C 11.820250 9.590222 -3.020110 0
M  V30 9 C 10.946722 7.199736 -7.881505 0
M  V30 10 C 11.416019 9.087841 -5.443067 0
M  V30 11 C 11.374555 9.931909 -4.233540 0
M  V30 12 C 7.380735 4.309872 -12.244649 0
M  V30 13 C 11.375382 6.790227 -4.432319 0
M  V30 14 C 6.038262 6.449018 -11.986611 0 CFG=1
M  V30 15 C 10.148373 7.202355 -6.569422 0
M  V30 16 C 10.072630 7.084046 -9.134407 0
M  V30 17 N 8.575404 5.706958 -10.511908 0 CHG=1
M  V30 18 O 7.631820 8.383565 -11.985028 0
M  V30 19 C 6.016552 5.002806 -12.428679 0
M  V30 20 C 7.984713 4.390221 -10.828325 0
M  V30 21 H 12.946061 8.279012 -1.715526 0
M  V30 22 H 8.158461 6.609626 -13.914921 0
M  V30 23 H 4.938086 8.389604 -12.171002 0
M  V30 24 H 4.975426 7.405823 -13.732767 0
M  V30 25 H 8.582878 5.668998 -8.418938 0
M  V30 26 H 9.991725 4.921959 -9.157111 0
M  V30 27 H 12.623332 6.236928 -2.741233 0
M  V30 28 H 11.776766 10.351048 -2.253900 0
M  V30 29 H 11.673489 6.390228 -7.847800 0
M  V30 30 H 11.525818 8.119023 -7.971576 0
M  V30 31 H 12.412908 9.160636 -5.879128 0
M  V30 32 H 10.759140 9.595677 -6.150031 0
M  V30 33 H 10.989381 10.932169 -4.380222 0
M  V30 34 H 7.247848 3.256712 -12.498774 0
M  V30 35 H 8.098388 4.688962 -12.971518 0
M  V30 36 H 11.055906 5.765640 -4.552032 0
M  V30 37 H 5.941255 6.541486 -10.909351 0
M  V30 38 H 9.285315 7.865991 -6.648902 0
M  V30 39 H 9.741923 6.208088 -6.377755 0
M  V30 40 H 10.716158 7.190280 -10.008494 0
M  V30 41 H 9.375746 7.923297 -9.168186 0
M  V30 42 H 9.212053 5.964884 -11.251062 0
M  V30 43 H 7.306890 8.390156 -11.081806 0
M  V30 44 H 5.249526 4.480387 -11.856401 0
M  V30 45 H 5.712295 4.948591 -13.475073 0
M  V30 46 H 7.241794 4.122578 -10.074177 0
M  V30 47 H 8.789395 3.653390 -10.784972 0
M  V30 48 H 7.844620 6.411610 -10.451051 0
M  V30 END ATOM
M  V30 BEGIN BOND
M  V30 1 1 4 3
M  V30 2 1 5 4
M  V30 3 2 7 2
M  V30 4 1 8 2
M  V30 5 1 10 1
M  V30 6 2 11 8
M  V30 7 1 11 10
M  V30 8 2 13 1
M  V30 9 1 13 7
M  V30 10 1 14 4
M  V30 11 1 14 5
M  V30 12 1 15 1
M  V30 13 1 15 9
M  V30 14 1 16 6
M  V30 15 1 16 9
M  V30 16 1 17 6
M  V30 17 1 18 4
M  V30 18 1 19 12
M  V30 19 1 19 14
M  V30 20 1 20 12
M  V30 21 1 20 17
M  V30 22 1 21 2
M  V30 23 1 22 3
M  V30 24 1 23 5
M  V30 25 1 24 5
M  V30 26 1 25 6
M  V30 27 1 26 6
M  V30 28 1 27 7
M  V30 29 1 28 8
M  V30 30 1 29 9
M  V30 31 1 30 9
M  V30 32 1 31 10
M  V30 33 1 32 10
M  V30 34 1 33 11
M  V30 35 1 34 12
M  V30 36 1 35 12
M  V30 37 1 36 13
M  V30 38 1 14 37 CFG=1
M  V30 39 1 38 15
M  V30 40 1 39 15
M  V30 41 1 40 16
M  V30 42 1 41 16
M  V30 43 1 42 17
M  V30 44 1 43 18
M  V30 45 1 44 19
M  V30 46 1 45 19
M  V30 47 1 46 20
M  V30 48 1 47 20
M  V30 49 1 48 17
M  V30 END BOND
M  V30 END CTAB
M  END
>  <i_epik_Tot_Q>  (1) 
1

>  <i_epik_Tot_abs_Q>  (1) 
1

>  <i_i_glide_confnum>  (1) 
390

>  <i_i_glide_lignum>  (1) 
65

>  <i_i_glide_posenum>  (1) 
48

>  <i_i_glide_rotatable_bonds>  (1) 
11

>  <i_lp_mmshare_version>  (1) 
72125

>  <i_m_source_file_index>  (1) 
40

>  <i_f3d_flags>  (1) 
0

>  <num_sample>  (1) 
100

>  <b_lp_Chiralities_Consistent>  (1) 
1

>  <r_epik_Charging_Adjusted_Penalty>  (1) 
0.00040157978397640045

>  <r_epik_Ionization_Penalty>  (1) 
0.00040175900368966919

>  <r_epik_Ionization_Penalty_Charging>  (1) 
0.00040157978397640045

>  <r_epik_Ionization_Penalty_Neutral>  (1) 
1.7921971326873193e-07

>  <r_epik_State_Penalty>  (1) 
-0

>  <r_glide_ring_energy>  (1) 
0

>  <r_i_docking_score>  (1) 
-4.695861952585064

>  <r_i_glide_ecoul>  (1) 
-10.255262767115342

>  <r_i_glide_eff_state_penalty>  (1) 
-0

>  <r_i_glide_einternal>  (1) 
7.1798346155609982

>  <r_i_glide_emodel>  (1) 
-50.261833263485528

>  <r_i_glide_emodel_strain>  (1) 
0.91890564244799577

>  <r_i_glide_energy>  (1) 
-38.528303046465673

>  <r_i_glide_erotb>  (1) 
3.7206293097687571

>  <r_i_glide_esite>  (1) 
-0.12531514506805586

>  <r_i_glide_evdw>  (1) 
-28.273040279350333

>  <r_i_glide_gscore>  (1) 
-4.695861952585064

>  <r_i_glide_gscore_strain>  (1) 
0

>  <r_i_glide_hbond>  (1) 
-0.3586370273463847

>  <r_i_glide_ligand_efficiency>  (1) 
-0.23479309762925321

>  <r_i_glide_ligand_efficiency_ln>  (1) 
-1.1752193668391964

>  <r_i_glide_ligand_efficiency_sa>  (1) 
-0.6373265204597327

>  <r_i_glide_lipo>  (1) 
-2.5698127290863795

>  <r_i_glide_metal>  (1) 
-0

>  <r_i_glide_rewards>  (1) 
-2.4107849318181822

>  <r_lp_Energy>  (1) 
15.408104999999999

>  <r_lp_tautomer_probability>  (1) 
1

>  <s_epik_cmdline>  (1) 
J2VwaWtfcHl0aG9uJywgJy1waHQnLCAnMS4wJywgJy1waCcsICc3LjQnLCAnLXRuJywgJzgnLCAnLW1hJywgJzUwMCcsICctaW1hZScsICc8aW5maWxlLm1hZT4nLCAnLW9tYWUnLCAnPG91dGZpbGUubWFlPic=

>  <s_epik_input>  (1) 
W0NIMl0xW0NIXT1bQ0hdW0NIXT1bQ0hdW0NIXT1DMVtDSDJdW0NIMl1bQ0gyXVtDSDJdW05IXVtDSDJdW0NIMl1bQ0gyXVtDQEBIXTJbQ0gyXUMyKFtPSF0pW09IXQ==

>  <s_glide_docking_method>  (1) 
confgen

>  <s_i_glide_gridfile>  (1) 
gpcr_drd2_6luq_protein_autoprepared_prepared

>  <s_lp_Force_Field>  (1) 
S-OPLS

>  <s_lp_Variant>  (1) 
DiffSBDD_39-1

>  <s_m_source_file>  (1) 
generated_generic_title2_ligand_DiffSBDD_2026-06-23_prepared.sdf

>  <GenAI_Model>  (1) 
DiffSBDD

>  <Protein>  (1) 
generic_title2

$$$$
DiffSBDD_23
     RDKit          3D

  0  0  0  0  0  0  0  0  0  0999 V3000
M  V30 BEGIN CTAB
M  V30 COUNTS 69 71 0 0 1
M  V30 BEGIN ATOM
M  V30 1 O 11.368231 2.162879 -18.634089 0
M  V30 2 C 15.350564 0.441085 -19.688361 0 CFG=2
M  V30 3 C 10.777006 8.391097 -9.324077 0
M  V30 4 C 7.480109 6.716239 -12.070741 0 CFG=1
M  V30 5 C 8.815017 6.000724 -12.349643 0 CFG=1
M  V30 6 C 5.950202 6.372274 -15.654787 0
M  V30 7 F 15.412812 1.159878 -20.835362 0
M  V30 8 C 9.425782 5.980110 -8.782327 0
M  V30 9 C 11.997548 4.472458 -18.471767 0
M  V30 10 C 10.402614 7.544120 -10.384939 0
M  V30 11 C 12.766326 0.511024 -19.703965 0
M  V30 12 C 5.727148 4.671309 -13.836397 0
M  V30 13 O 9.367516 5.476173 -11.139895 0
M  V30 14 F 14.017790 -1.209771 -20.663606 0
M  V30 15 O 16.470161 -0.409772 -19.585030 0
M  V30 16 F 9.626075 5.941295 -17.140777 0
M  V30 17 C 6.723120 7.001389 -13.375761 0 CFG=2
M  V30 18 C 14.035945 -0.362006 -19.634626 0 CFG=1
M  V30 19 C 9.059294 2.418265 -16.801485 0
M  V30 20 N 8.007080 5.332251 -14.618651 0
M  V30 21 F 10.596360 4.790648 -15.585033 0
M  V30 22 C 10.475148 8.035038 -7.995028 0
M  V30 23 C 8.245281 4.522660 -15.836212 0 CFG=2
M  V30 24 C 11.299236 3.292471 -17.770808 0 CFG=1
M  V30 25 C 9.817348 3.596345 -17.446226 0 CFG=2
M  V30 26 C 6.623138 5.812437 -14.372338 0
M  V30 27 C 9.799191 6.830819 -7.724795 0
M  V30 28 C 9.725034 6.332276 -10.115636 0
M  V30 29 O 8.772637 4.813741 -8.519174 0
M  V30 30 F 7.375410 7.990223 -13.985046 0
M  V30 31 C 8.138909 2.992633 -15.708616 0
M  V30 32 O 6.653159 5.990226 -11.185025 0
M  V30 33 C 8.666333 4.861151 -13.380880 0
M  V30 34 C 9.616223 4.780763 -16.484231 0
M  V30 35 C 12.555195 1.396711 -18.468769 0
M  V30 36 H 15.403442 1.127660 -18.845395 0
M  V30 37 H 11.296889 9.315158 -9.530287 0
M  V30 38 H 7.686573 7.670079 -11.585025 0
M  V30 39 H 9.508165 6.716710 -12.785449 0
M  V30 40 H 5.054171 6.942178 -15.407937 0
M  V30 41 H 6.608645 7.043465 -16.206050 0
M  V30 42 H 5.622723 5.590228 -16.337332 0
M  V30 43 H 12.020389 5.354997 -17.833121 0
M  V30 44 H 13.030437 4.239929 -18.727214 0
M  V30 45 H 11.483674 4.741206 -19.394945 0
M  V30 46 H 10.641411 7.819988 -11.397956 0
M  V30 47 H 11.891194 -0.126645 -19.826829 0
M  V30 48 H 12.803098 1.138101 -20.595303 0
M  V30 49 H 4.686619 4.986106 -13.770456 0
M  V30 50 H 5.775409 3.807784 -14.488530 0
M  V30 51 H 6.002853 4.306733 -12.850856 0
M  V30 52 H 16.175414 -1.302286 -19.435657 0
M  V30 53 H 5.733236 7.398114 -13.145086 0
M  V30 54 H 14.006374 -0.979089 -18.735322 0
M  V30 55 H 9.743271 1.681231 -16.385026 0
M  V30 56 H 8.476758 1.893195 -17.559749 0
M  V30 57 H 10.761905 8.686472 -7.182607 0
M  V30 58 H 7.545423 4.802568 -16.618073 0
M  V30 59 H 11.815541 3.068228 -16.835073 0
M  V30 60 H 9.299923 3.835363 -18.376794 0
M  V30 61 H 9.566315 6.559170 -6.705720 0
M  V30 62 H 8.426826 4.446794 -9.320061 0
M  V30 63 H 8.453659 2.630622 -14.731730 0
M  V30 64 H 7.114248 2.651576 -15.853241 0
M  V30 65 H 6.575406 6.545823 -10.403876 0
M  V30 66 H 9.659110 4.466818 -13.584144 0
M  V30 67 H 8.119644 4.029783 -12.940541 0
M  V30 68 H 13.416299 2.049607 -18.335766 0
M  V30 69 H 12.469744 0.789354 -17.566282 0
M  V30 END ATOM
M  V30 BEGIN BOND
M  V30 1 1 5 4
M  V30 2 1 7 2
M  V30 3 1 10 3
M  V30 4 1 13 5
M  V30 5 1 15 2
M  V30 6 1 17 4
M  V30 7 1 18 2
M  V30 8 1 18 11
M  V30 9 1 18 14
M  V30 10 2 22 3
M  V30 11 1 23 20
M  V30 12 1 24 1
M  V30 13 1 24 9
M  V30 14 1 25 19
M  V30 15 1 25 24
M  V30 16 1 26 6
M  V30 17 1 26 12
M  V30 18 1 26 17
M  V30 19 1 26 20
M  V30 20 2 27 8
M  V30 21 1 27 22
M  V30 22 1 28 8
M  V30 23 2 28 10
M  V30 24 1 28 13
M  V30 25 1 29 8
M  V30 26 1 30 17
M  V30 27 1 31 19
M  V30 28 1 31 23
M  V30 29 1 32 4
M  V30 30 1 33 5
M  V30 31 1 33 20
M  V30 32 1 34 16
M  V30 33 1 34 21
M  V30 34 1 34 23
M  V30 35 1 34 25
M  V30 36 1 35 1
M  V30 37 1 35 11
M  V30 38 1 2 36 CFG=1
M  V30 39 1 37 3
M  V30 40 1 4 38 CFG=1
M  V30 41 1 5 39 CFG=3
M  V30 42 1 40 6
M  V30 43 1 41 6
M  V30 44 1 42 6
M  V30 45 1 43 9
M  V30 46 1 44 9
M  V30 47 1 45 9
M  V30 48 1 46 10
M  V30 49 1 47 11
M  V30 50 1 48 11
M  V30 51 1 49 12
M  V30 52 1 50 12
M  V30 53 1 51 12
M  V30 54 1 52 15
M  V30 55 1 17 53 CFG=1
M  V30 56 1 18 54 CFG=1
M  V30 57 1 55 19
M  V30 58 1 56 19
M  V30 59 1 57 22
M  V30 60 1 23 58 CFG=3
M  V30 61 1 24 59 CFG=1
M  V30 62 1 25 60 CFG=3
M  V30 63 1 61 27
M  V30 64 1 62 29
M  V30 65 1 63 31
M  V30 66 1 64 31
M  V30 67 1 65 32
M  V30 68 1 66 33
M  V30 69 1 67 33
M  V30 70 1 68 35
M  V30 71 1 69 35
M  V30 END BOND
M  V30 END CTAB
M  END
>  <i_epik_Tot_Q>  (1) 
0

>  <i_epik_Tot_abs_Q>  (1) 
0

>  <i_i_glide_confnum>  (1) 
2000

>  <i_i_glide_lignum>  (1) 
41

>  <i_i_glide_posenum>  (1) 
333

>  <i_i_glide_rotatable_bonds>  (1) 
12

>  <i_lp_mmshare_version>  (1) 
72125

>  <i_m_source_file_index>  (1) 
24

>  <i_f3d_flags>  (1) 
0

>  <num_sample>  (1) 
100

>  <b_lp_Chiralities_Consistent>  (1) 
1

>  <r_epik_Charging_Adjusted_Penalty>  (1) 
0.0080743036446832648

>  <r_epik_Ionization_Penalty>  (1) 
0.010611315271180252

>  <r_epik_Ionization_Penalty_Charging>  (1) 
0

>  <r_epik_Ionization_Penalty_Neutral>  (1) 
0.010611315271180252

>  <r_epik_State_Penalty>  (1) 
0.0080743036446832648

>  <r_glide_ring_energy>  (1) 
0

>  <r_i_docking_score>  (1) 
-4.6878294453355762

>  <r_i_glide_ecoul>  (1) 
-7.2716377682672615

>  <r_i_glide_eff_state_penalty>  (1) 
0.0080743036446832648

>  <r_i_glide_einternal>  (1) 
13.825412053391855

>  <r_i_glide_emodel>  (1) 
-38.773898045876862

>  <r_i_glide_emodel_strain>  (1) 
1.6601968027030836

>  <r_i_glide_energy>  (1) 
-38.241159519957549

>  <r_i_glide_erotb>  (1) 
0.70487652011910051

>  <r_i_glide_esite>  (1) 
-0.012948080657493758

>  <r_i_glide_evdw>  (1) 
-30.969521751690284

>  <r_i_glide_gscore>  (1) 
-4.6959037489802595

>  <r_i_glide_gscore_strain>  (1) 
0

>  <r_i_glide_hbond>  (1) 
-0.45599999999999996

>  <r_i_glide_ligand_efficiency>  (1) 
-0.13393798415244504

>  <r_i_glide_ligand_efficiency_ln>  (1) 
-1.02908260402013

>  <r_i_glide_ligand_efficiency_sa>  (1) 
-0.43812002761563623

>  <r_i_glide_lipo>  (1) 
-1.5247551486749138

>  <r_i_glide_metal>  (1) 
-0

>  <r_i_glide_rewards>  (1) 
-0.76785528694234906

>  <r_lp_Energy>  (1) 
44.015346999999998

>  <r_lp_tautomer_probability>  (1) 
1

>  <s_epik_cmdline>  (1) 
J2VwaWtfcHl0aG9uJywgJy1waHQnLCAnMS4wJywgJy1waCcsICc3LjQnLCAnLXRuJywgJzgnLCAnLW1hJywgJzUwMCcsICctaW1hZScsICc8aW5maWxlLm1hZT4nLCAnLW9tYWUnLCAnPG91dGZpbGUubWFlPic=

>  <s_epik_input>  (1) 
RltDQEhdKFtPSF0pW0NASF0oRilbQ0gyXVtDSDJdT1tDQEBIXShbQ0gzXSlbQ0BIXTFbQ0gyXVtDSDJdW0NASF0oQzEoRilGKU4yW0NIMl1bQ0BASF0oW0NASF0oW09IXSlbQ0BASF0oRilDMihbQ0gzXSlbQ0gzXSlPW0NAQEhdM1tDSF09W0NIXVtDSF09W0NIXUMzPU8=

>  <s_glide_docking_method>  (1) 
confgen

>  <s_i_glide_gridfile>  (1) 
gpcr_drd2_6luq_protein_autoprepared_prepared

>  <s_lp_Force_Field>  (1) 
S-OPLS

>  <s_lp_Variant>  (1) 
DiffSBDD_23-1

>  <s_m_source_file>  (1) 
generated_generic_title2_ligand_DiffSBDD_2026-06-23_prepared.sdf

>  <GenAI_Model>  (1) 
DiffSBDD

>  <Protein>  (1) 
generic_title2

$$$$
DiffSBDD_94
     RDKit          3D

  0  0  0  0  0  0  0  0  0  0999 V3000
M  V30 BEGIN CTAB
M  V30 COUNTS 65 69 0 0 1
M  V30 BEGIN ATOM
M  V30 1 C 6.045354 6.819527 -16.523863 0
M  V30 2 C 8.180589 5.513843 -12.012018 0
M  V30 3 O 10.175411 7.190046 -5.185434 0
M  V30 4 C 5.940191 6.405374 -15.057282 0
M  V30 5 C 10.332172 6.780675 -6.513478 0 CFG=1
M  V30 6 N 5.166593 9.460375 -21.583468 0
M  V30 7 C 6.333285 9.884438 -22.136317 0
M  V30 8 C 6.747568 5.698924 -17.285583 0 CFG=2
M  V30 9 C 6.073557 7.311040 -21.385132 0
M  V30 10 C 11.393520 7.530320 -7.299462 0 CFG=1
M  V30 11 Cl 8.555229 3.691463 -17.159763 0
M  V30 12 C 11.694850 6.189273 -6.617076 0
M  V30 13 C 5.845895 5.867221 -20.945612 0 CFG=2
M  V30 14 C 8.040898 7.506162 -12.584302 0
M  V30 15 C 7.253193 6.270134 -12.978021 0 CFG=1
M  V30 16 C 8.115311 5.356797 -16.683722 0 CFG=2
M  V30 17 C 9.869927 7.247748 -9.373561 0 CFG=1
M  V30 18 C 4.706782 5.203998 -21.738045 0
M  V30 19 C 7.430590 9.036050 -22.340160 0
M  V30 20 O 9.340295 5.190051 -14.631900 0
M  V30 21 N 5.035607 8.172496 -21.201986 0
M  V30 22 N 8.412583 6.813103 -11.356158 0 CFG=2 CHG=1
M  V30 23 C 11.249386 7.694214 -8.817689 0
M  V30 24 N 7.218861 6.009089 -14.442099 0
M  V30 25 F 11.902188 8.673015 -6.703932 0
M  V30 26 C 9.797736 7.116623 -10.900314 0
M  V30 27 C 7.297265 7.702946 -21.952064 0
M  V30 28 C 9.109019 6.170583 -7.164148 0
M  V30 29 O 9.207601 4.934027 -9.207887 0
M  V30 30 C 8.275762 5.505175 -15.154229 0
M  V30 31 C 5.648235 5.724114 -19.423325 0
M  V30 32 C 9.373938 6.009316 -8.636887 0
M  V30 33 N 6.885229 6.010687 -18.704318 0
M  V30 34 H 6.575377 7.766055 -16.616690 0
M  V30 35 H 5.044923 6.994325 -16.920030 0
M  V30 36 H 9.103916 5.071095 -12.370007 0
M  V30 37 H 7.651072 4.809483 -11.369759 0
M  V30 38 H 9.764659 6.488592 -4.699261 0
M  V30 39 H 5.247358 5.569595 -14.963674 0
M  V30 40 H 5.494478 7.232568 -14.502618 0
M  V30 41 H 6.383749 10.926551 -22.418816 0
M  V30 42 H 6.174718 4.790321 -17.186504 0
M  V30 43 H 12.185458 6.131909 -5.653434 0
M  V30 44 H 11.757368 5.271091 -7.185738 0
M  V30 45 H 6.745245 5.306561 -21.205180 0
M  V30 46 H 7.437852 8.397059 -12.413840 0
M  V30 47 H 8.916130 7.711311 -13.185023 0
M  V30 48 H 6.250814 6.311870 -12.542772 0
M  V30 49 H 8.882629 5.990092 -17.125066 0
M  V30 50 H 9.165889 8.032594 -9.093252 0
M  V30 51 H 4.904966 5.237934 -22.809931 0
M  V30 52 H 4.590473 4.156213 -21.459043 0
M  V30 53 H 3.755288 5.701840 -21.561395 0
M  V30 54 H 8.344811 9.401423 -22.784815 0
M  V30 55 H 12.070757 7.178906 -9.312855 0
M  V30 56 H 11.386034 8.749870 -9.055333 0
M  V30 57 H 10.111725 8.075064 -11.314393 0
M  V30 58 H 10.517065 6.389820 -11.275776 0
M  V30 59 H 8.104773 6.999078 -22.085538 0
M  V30 60 H 8.889537 5.190197 -6.783522 0
M  V30 61 H 8.240865 6.809004 -7.005256 0
M  V30 62 H 5.347045 4.699097 -19.204639 0
M  V30 63 H 4.840542 6.372108 -19.081623 0
M  V30 64 H 7.615840 5.424653 -19.085804 0
M  V30 65 H 7.723409 7.032495 -10.629215 0
M  V30 END ATOM
M  V30 BEGIN BOND
M  V30 1 1 4 1
M  V30 2 1 5 3 CFG=1
M  V30 3 1 7 6
M  V30 4 1 8 1
M  V30 5 1 10 5
M  V30 6 1 12 5
M  V30 7 1 12 10
M  V30 8 1 13 9
M  V30 9 1 15 2
M  V30 10 1 15 14
M  V30 11 1 16 8
M  V30 12 1 16 11
M  V30 13 1 18 13
M  V30 14 2 19 7
M  V30 15 2 21 6
M  V30 16 1 21 9
M  V30 17 1 22 2
M  V30 18 1 22 14
M  V30 19 1 23 10
M  V30 20 1 23 17
M  V30 21 1 24 4
M  V30 22 1 24 15
M  V30 23 1 10 25 CFG=1
M  V30 24 1 26 17
M  V30 25 1 26 22
M  V30 26 2 27 9
M  V30 27 1 27 19
M  V30 28 1 28 5
M  V30 29 1 30 16
M  V30 30 2 30 20
M  V30 31 1 30 24
M  V30 32 1 31 13
M  V30 33 1 32 17
M  V30 34 1 32 28
M  V30 35 2 32 29
M  V30 36 1 33 8
M  V30 37 1 33 31
M  V30 38 1 34 1
M  V30 39 1 35 1
M  V30 40 1 36 2
M  V30 41 1 37 2
M  V30 42 1 38 3
M  V30 43 1 39 4
M  V30 44 1 40 4
M  V30 45 1 41 7
M  V30 46 1 8 42 CFG=3
M  V30 47 1 43 12
M  V30 48 1 44 12
M  V30 49 1 13 45 CFG=3
M  V30 50 1 46 14
M  V30 51 1 47 14
M  V30 52 1 15 48 CFG=1
M  V30 53 1 16 49 CFG=3
M  V30 54 1 17 50 CFG=1
M  V30 55 1 51 18
M  V30 56 1 52 18
M  V30 57 1 53 18
M  V30 58 1 54 19
M  V30 59 1 55 23
M  V30 60 1 56 23
M  V30 61 1 57 26
M  V30 62 1 58 26
M  V30 63 1 59 27
M  V30 64 1 60 28
M  V30 65 1 61 28
M  V30 66 1 62 31
M  V30 67 1 63 31
M  V30 68 1 64 33
M  V30 69 1 22 65 CFG=1
M  V30 END BOND
M  V30 END CTAB
M  END
>  <i_epik_Tot_Q>  (1) 
1

>  <i_epik_Tot_abs_Q>  (1) 
1

>  <i_i_glide_confnum>  (1) 
696

>  <i_i_glide_lignum>  (1) 
182

>  <i_i_glide_posenum>  (1) 
343

>  <i_i_glide_rotatable_bonds>  (1) 
8

>  <i_lp_mmshare_version>  (1) 
72125

>  <i_m_source_file_index>  (1) 
95

>  <i_f3d_flags>  (1) 
0

>  <num_sample>  (1) 
100

>  <b_lp_Chiralities_Consistent>  (1) 
1

>  <r_epik_Charging_Adjusted_Penalty>  (1) 
1.4532026091556733

>  <r_epik_Ionization_Penalty>  (1) 
1.1658176113502041

>  <r_epik_Ionization_Penalty_Charging>  (1) 
0.22723193656236854

>  <r_epik_Ionization_Penalty_Neutral>  (1) 
0.93858567478783561

>  <r_epik_State_Penalty>  (1) 
1.2259706725933048

>  <r_glide_ring_energy>  (1) 
0

>  <r_i_docking_score>  (1) 
-4.6876377406297278

>  <r_i_glide_ecoul>  (1) 
-7.5766291644083861

>  <r_i_glide_eff_state_penalty>  (1) 
1.2259706725933048

>  <r_i_glide_einternal>  (1) 
5.5105578739140579

>  <r_i_glide_emodel>  (1) 
-44.104627822374951

>  <r_i_glide_emodel_strain>  (1) 
0.40014434226871742

>  <r_i_glide_energy>  (1) 
-38.532325256413884

>  <r_i_glide_erotb>  (1) 
0.52602338862990483

>  <r_i_glide_esite>  (1) 
-0.1708386612299545

>  <r_i_glide_evdw>  (1) 
-30.955696092005496

>  <r_i_glide_gscore>  (1) 
-5.9136084132230327

>  <r_i_glide_gscore_strain>  (1) 
0

>  <r_i_glide_hbond>  (1) 
-0.20000000000000001

>  <r_i_glide_ligand_efficiency>  (1) 
-0.14204962850393116

>  <r_i_glide_ligand_efficiency_ln>  (1) 
-1.042506362226802

>  <r_i_glide_ligand_efficiency_sa>  (1) 
-0.45562905998951286

>  <r_i_glide_lipo>  (1) 
-1.7957973061217043

>  <r_i_glide_metal>  (1) 
-0

>  <r_i_glide_rewards>  (1) 
-1.5887166552397447

>  <r_lp_Energy>  (1) 
59.784298

>  <s_epik_cmdline>  (1) 
J2VwaWtfcHl0aG9uJywgJy1waHQnLCAnMS4wJywgJy1waCcsICc3LjQnLCAnLXRuJywgJzgnLCAnLW1hJywgJzUwMCcsICctaW1hZScsICc8aW5maWxlLm1hZT4nLCAnLW9tYWUnLCAnPG91dGZpbGUubWFlPic=

>  <s_epik_input>  (1) 
W2NIXTFbY0hdW2NIXW5uYzFbQ0BIXShbQ0gzXSlbQ0gyXVtOSF1bQ0BASF0yW0NIMl1bQ0gyXU4oQyg9TylbQ0BIXTJDbClbQ0hdM1tDSDJdTihbQ0gyXTMpW0NIMl1bQ0BASF0oQyg9TylbQ0gyXTQpW0NIMl1bQ0BdKEYpKFtDSDJdNSlbQ0BAXTQ1W09IXQ==

>  <s_glide_docking_method>  (1) 
confgen

>  <s_i_glide_gridfile>  (1) 
gpcr_drd2_6luq_protein_autoprepared_prepared

>  <s_lp_Force_Field>  (1) 
S-OPLS

>  <s_lp_Variant>  (1) 
DiffSBDD_94-5

>  <s_m_source_file>  (1) 
generated_generic_title2_ligand_DiffSBDD_2026-06-23_prepared.sdf

>  <GenAI_Model>  (1) 
DiffSBDD

>  <Protein>  (1) 
generic_title2

$$$$
DiffSBDD_65
     RDKit          3D

  0  0  0  0  0  0  0  0  0  0999 V3000
M  V30 BEGIN CTAB
M  V30 COUNTS 66 68 0 0 1
M  V30 BEGIN ATOM
M  V30 1 C 9.643142 6.186917 -11.132774 0 CFG=2
M  V30 2 N 8.141798 4.516873 -15.918252 0
M  V30 3 C 9.780003 6.803576 -9.706663 0
M  V30 4 C 6.257474 5.370666 -19.997821 0
M  V30 5 C 5.149278 8.453276 -22.612448 0
M  V30 6 C 6.435368 6.960671 -21.805024 0 CFG=1
M  V30 7 O 10.586008 6.790229 -11.995599 0
M  V30 8 O 9.424536 3.571824 -17.542846 0
M  V30 9 O 7.118165 4.642414 -19.182282 0
M  V30 10 O 7.865088 7.651170 -11.985034 0
M  V30 11 C 8.213041 6.310878 -11.718692 0 CFG=1
M  V30 12 C 7.170803 6.102065 -22.855070 0
M  V30 13 C 9.047721 5.968348 -8.628620 0
M  V30 14 O 7.375422 10.599602 -22.785622 0
M  V30 15 C 4.049772 6.058910 -22.629312 0
M  V30 16 C 7.215932 5.463145 -15.840986 0
M  V30 17 F 9.375424 8.073928 -9.699454 0
M  V30 18 C 6.437779 3.792550 -13.253496 0
M  V30 19 C 7.826548 5.386171 -18.196605 0 CFG=1
M  V30 20 C 6.786648 5.288159 -13.318886 0 CFG=2
M  V30 21 C 6.542672 5.907944 -14.694233 0
M  V30 22 N 5.623178 6.909374 -14.754883 0
M  V30 23 O 8.119600 5.490126 -12.847073 0
M  V30 24 C 8.684869 5.971425 -22.622672 0
M  V30 25 F 11.069492 6.790328 -9.363832 0
M  V30 26 C 6.037679 7.017262 -17.177848 0
M  V30 27 C 4.893312 7.115582 -21.918224 0 CFG=2
M  V30 28 C 6.976279 5.990280 -17.046105 0
M  V30 29 C 7.667207 9.225496 -22.610425 0
M  V30 30 O 9.056145 6.604616 -7.367936 0
M  V30 31 C 8.568118 4.373386 -17.176203 0
M  V30 32 O 6.833571 6.547170 -20.493409 0
M  V30 33 C 5.381423 7.450958 -15.995029 0
M  V30 34 C 6.508560 8.512972 -21.907052 0 CFG=1
M  V30 35 H 9.867985 5.120748 -11.083602 0
M  V30 36 H 8.468693 3.996281 -15.117361 0
M  V30 37 H 5.987316 4.690934 -20.805012 0
M  V30 38 H 5.342790 5.608526 -19.455169 0
M  V30 39 H 4.459502 9.251881 -22.337613 0
M  V30 40 H 5.238809 8.361969 -23.696485 0
M  V30 41 H 10.381309 6.503462 -12.873290 0
M  V30 42 H 7.575035 7.998992 -11.139186 0
M  V30 43 H 7.490043 5.943638 -10.989830 0
M  V30 44 H 6.747941 5.098601 -22.888787 0
M  V30 45 H 7.003290 6.510793 -23.851933 0
M  V30 46 H 9.519699 4.990069 -8.529543 0
M  V30 47 H 8.006207 5.785258 -8.884785 0
M  V30 48 H 8.023178 10.966360 -23.379720 0
M  V30 49 H 4.453032 5.815785 -23.612229 0
M  V30 50 H 3.999585 5.134470 -22.054574 0
M  V30 51 H 3.028412 6.404311 -22.785075 0
M  V30 52 H 5.412975 3.618764 -13.583448 0
M  V30 53 H 7.094519 3.184428 -13.873439 0
M  V30 54 H 6.523562 3.422911 -12.231694 0
M  V30 55 H 8.528340 6.108890 -18.615325 0
M  V30 56 H 6.072090 5.770274 -12.646776 0
M  V30 57 H 9.139575 5.354886 -23.397927 0
M  V30 58 H 9.189864 6.935014 -22.635784 0
M  V30 59 H 8.898078 5.498064 -21.663646 0
M  V30 60 H 5.826692 7.470258 -18.134960 0
M  V30 61 H 4.475370 7.330460 -20.932346 0
M  V30 62 H 8.586487 9.136361 -22.031242 0
M  V30 63 H 7.858812 8.791738 -23.591882 0
M  V30 64 H 8.306503 7.190056 -7.350620 0
M  V30 65 H 4.650925 8.245479 -16.036401 0
M  V30 66 H 6.359686 8.937267 -20.911098 0
M  V30 END ATOM
M  V30 BEGIN BOND
M  V30 1 1 3 1
M  V30 2 1 7 1
M  V30 3 1 9 4
M  V30 4 1 11 1
M  V30 5 1 11 10
M  V30 6 1 12 6
M  V30 7 1 13 3
M  V30 8 1 16 2
M  V30 9 1 17 3
M  V30 10 1 19 9
M  V30 11 1 20 18
M  V30 12 1 21 16
M  V30 13 1 21 20
M  V30 14 2 22 21
M  V30 15 1 23 11
M  V30 16 1 23 20
M  V30 17 1 24 12
M  V30 18 1 25 3
M  V30 19 1 27 5
M  V30 20 1 27 6
M  V30 21 1 27 15
M  V30 22 2 28 16
M  V30 23 1 28 19
M  V30 24 1 28 26
M  V30 25 1 29 14
M  V30 26 1 30 13
M  V30 27 1 31 2
M  V30 28 2 31 8
M  V30 29 1 31 19
M  V30 30 1 32 4
M  V30 31 1 6 32 CFG=1
M  V30 32 1 33 22
M  V30 33 2 33 26
M  V30 34 1 34 5
M  V30 35 1 34 6
M  V30 36 1 34 29
M  V30 37 1 1 35 CFG=1
M  V30 38 1 36 2
M  V30 39 1 37 4
M  V30 40 1 38 4
M  V30 41 1 39 5
M  V30 42 1 40 5
M  V30 43 1 41 7
M  V30 44 1 42 10
M  V30 45 1 11 43 CFG=1
M  V30 46 1 44 12
M  V30 47 1 45 12
M  V30 48 1 46 13
M  V30 49 1 47 13
M  V30 50 1 48 14
M  V30 51 1 49 15
M  V30 52 1 50 15
M  V30 53 1 51 15
M  V30 54 1 52 18
M  V30 55 1 53 18
M  V30 56 1 54 18
M  V30 57 1 19 55 CFG=3
M  V30 58 1 20 56 CFG=1
M  V30 59 1 57 24
M  V30 60 1 58 24
M  V30 61 1 59 24
M  V30 62 1 60 26
M  V30 63 1 27 61 CFG=1
M  V30 64 1 62 29
M  V30 65 1 63 29
M  V30 66 1 64 30
M  V30 67 1 65 33
M  V30 68 1 34 66 CFG=1
M  V30 END BOND
M  V30 END CTAB
M  END
>  <i_epik_Tot_Q>  (1) 
0

>  <i_epik_Tot_abs_Q>  (1) 
0

>  <i_i_glide_confnum>  (1) 
2755

>  <i_i_glide_lignum>  (1) 
107

>  <i_i_glide_posenum>  (1) 
217

>  <i_i_glide_rotatable_bonds>  (1) 
16

>  <i_lp_mmshare_version>  (1) 
72125

>  <i_m_source_file_index>  (1) 
66

>  <i_f3d_flags>  (1) 
0

>  <num_sample>  (1) 
100

>  <b_lp_Chiralities_Consistent>  (1) 
1

>  <r_epik_Charging_Adjusted_Penalty>  (1) 
0

>  <r_epik_Ionization_Penalty>  (1) 
0.020984920231991385

>  <r_epik_Ionization_Penalty_Charging>  (1) 
0

>  <r_epik_Ionization_Penalty_Neutral>  (1) 
0.020984920231991385

>  <r_epik_State_Penalty>  (1) 
-0

>  <r_glide_ring_energy>  (1) 
0

>  <r_i_docking_score>  (1) 
-4.6863411461133833

>  <r_i_glide_ecoul>  (1) 
-10.636966154924993

>  <r_i_glide_eff_state_penalty>  (1) 
-0

>  <r_i_glide_einternal>  (1) 
15.996740327130178

>  <r_i_glide_emodel>  (1) 
-42.570341734057635

>  <r_i_glide_emodel_strain>  (1) 
1.8141857912759889

>  <r_i_glide_energy>  (1) 
-42.73937491174528

>  <r_i_glide_erotb>  (1) 
0.93044466926125857

>  <r_i_glide_esite>  (1) 
-0.17130742066025229

>  <r_i_glide_evdw>  (1) 
-32.102408756820289

>  <r_i_glide_gscore>  (1) 
-4.6863411461133833

>  <r_i_glide_gscore_strain>  (1) 
0

>  <r_i_glide_hbond>  (1) 
-0.32678537870538699

>  <r_i_glide_ligand_efficiency>  (1) 
-0.13783356312098186

>  <r_i_glide_ligand_efficiency_ln>  (1) 
-1.0353442065931742

>  <r_i_glide_ligand_efficiency_sa>  (1) 
-0.44652723769885783

>  <r_i_glide_lipo>  (1) 
-1.48752064290148

>  <r_i_glide_metal>  (1) 
-0

>  <r_i_glide_rewards>  (1) 
-0.43050701202775882

>  <r_lp_Energy>  (1) 
34.219946999999998

>  <r_lp_tautomer_probability>  (1) 
1

>  <s_epik_Chemistry_Notes>  (1) 
This compound contains an acetal/aminal-like group ( X-CH(R)-Y where X, Y are N, S, or O) that may be acid/base labile, releasing an aldehyde.

>  <s_epik_cmdline>  (1) 
J2VwaWtfcHl0aG9uJywgJy1waHQnLCAnMS4wJywgJy1waCcsICc3LjQnLCAnLXRuJywgJzgnLCAnLW1hJywgJzUwMCcsICctaW1hZScsICc8aW5maWxlLm1hZT4nLCAnLW9tYWUnLCAnPG91dGZpbGUubWFlPic=

>  <s_epik_input>  (1) 
W09IXVtDSDJdQyhGKShGKVtDQEhdKFtPSF0pW0NAQEhdKFtPSF0pT1tDQEhdKFtDSDNdKWMxbltjSF1bY0hdYyhjMTIpW0NASF0oQyg9TylbTkhdMilPW0NIMl1PW0NAQF0zKFtDSDJdW0NIM10pW0NASF0oW0NIM10pW0NIMl1bQ0BASF0zW0NIMl1bT0hd

>  <s_glide_docking_method>  (1) 
confgen

>  <s_i_glide_gridfile>  (1) 
gpcr_drd2_6luq_protein_autoprepared_prepared

>  <s_lp_Force_Field>  (1) 
S-OPLS

>  <s_lp_Variant>  (1) 
DiffSBDD_65-2

>  <s_m_source_file>  (1) 
generated_generic_title2_ligand_DiffSBDD_2026-06-23_prepared.sdf

>  <GenAI_Model>  (1) 
DiffSBDD

>  <Protein>  (1) 
generic_title2

$$$$
DiffSBDD_8
     RDKit          3D

  0  0  0  0  0  0  0  0  0  0999 V3000
M  V30 BEGIN CTAB
M  V30 COUNTS 61 63 0 0 1
M  V30 BEGIN ATOM
M  V30 1 C 9.689676 7.671105 -10.533929 0
M  V30 2 O 9.356638 6.390214 -6.519210 0
M  V30 3 C 7.198359 1.371921 -14.394075 0
M  V30 4 N 11.017040 7.574696 -5.655062 0
M  V30 5 C 7.110795 6.123940 -15.677541 0 CFG=2
M  V30 6 C 8.068063 3.983054 -13.717972 0
M  V30 7 N 11.589117 8.790219 -8.063686 0
M  V30 8 C 4.789951 7.765349 -18.303308 0
M  V30 9 C 4.325137 5.990226 -16.635376 0
M  V30 10 O 6.831185 5.927818 -17.997455 0
M  V30 11 C 6.976890 2.431106 -15.282668 0
M  V30 12 C 3.279028 7.990223 -18.352760 0
M  V30 13 O 7.136445 4.740294 -15.892665 0
M  V30 14 S 9.807265 5.399185 -11.965463 0
M  V30 15 C 6.485224 6.456801 -14.300701 0
M  V30 16 C 8.598173 5.384332 -13.349425 0 CFG=2
M  V30 17 N 9.023960 6.393375 -10.784891 0 CFG=1 CHG=1
M  V30 18 F 6.791577 0.122351 -14.718218 0
M  V30 19 C 7.976253 6.404081 -18.685669 0
M  V30 20 C 9.242214 5.983683 -9.402454 0
M  V30 21 C 7.548880 6.498039 -13.226332 0
M  V30 22 C 10.273438 7.106887 -9.241520 0 CFG=2
M  V30 23 C 5.170618 7.195971 -16.927951 0 CFG=1
M  V30 24 N 6.575411 6.805162 -16.867459 0
M  V30 25 C 10.210407 7.252256 -6.664496 0
M  V30 26 C 7.838295 1.602612 -13.173694 0
M  V30 27 C 8.272958 2.897485 -12.829627 0
M  V30 28 C 7.392208 3.740820 -14.964756 0
M  V30 29 C 10.347040 8.015980 -7.995754 0 CFG=1
M  V30 30 H 10.438172 7.957312 -11.273216 0
M  V30 31 H 8.975437 8.476895 -10.364801 0
M  V30 32 H 10.934781 7.087580 -4.774876 0
M  V30 33 H 11.710506 8.293901 -5.776450 0
M  V30 34 H 8.161393 6.390238 -15.674608 0
M  V30 35 H 11.631440 9.509417 -7.358321 0
M  V30 36 H 12.406727 8.206097 -7.964909 0
M  V30 37 H 5.338296 8.688824 -18.490753 0
M  V30 38 H 5.050497 7.089215 -19.117286 0
M  V30 39 H 3.251104 6.151984 -16.587720 0
M  V30 40 H 4.575411 5.247030 -17.392374 0
M  V30 41 H 4.575447 5.590231 -15.672892 0
M  V30 42 H 6.483408 2.241348 -16.223443 0
M  V30 43 H 2.975424 8.620853 -19.188306 0
M  V30 44 H 2.748135 7.046488 -18.385008 0
M  V30 45 H 2.909428 8.390306 -17.414450 0
M  V30 46 H 5.989736 7.426202 -14.331543 0
M  V30 47 H 5.744628 5.711043 -14.016339 0
M  V30 48 H 9.266881 5.607861 -14.177243 0
M  V30 49 H 8.170912 5.757703 -19.540493 0
M  V30 50 H 7.822194 7.410881 -19.072427 0
M  V30 51 H 8.864333 6.390191 -18.052520 0
M  V30 52 H 8.334886 6.113707 -8.811939 0
M  V30 53 H 9.649314 4.979206 -9.278953 0
M  V30 54 H 8.043973 7.470061 -13.233472 0
M  V30 55 H 7.005828 6.418212 -12.285451 0
M  V30 56 H 11.258608 6.702179 -9.463705 0
M  V30 57 H 4.983501 7.961763 -16.176544 0
M  V30 58 H 8.004570 0.781322 -12.492589 0
M  V30 59 H 8.774101 3.049637 -11.888670 0
M  V30 60 H 9.511801 8.717626 -8.030521 0
M  V30 61 H 8.032031 6.551664 -10.923750 0
M  V30 END ATOM
M  V30 BEGIN BOND
M  V30 1 2 11 3
M  V30 2 1 12 8
M  V30 3 1 13 5
M  V30 4 1 15 5
M  V30 5 1 16 6
M  V30 6 1 16 14
M  V30 7 1 17 1
M  V30 8 1 17 14
M  V30 9 1 18 3
M  V30 10 1 19 10
M  V30 11 1 20 17
M  V30 12 1 21 15
M  V30 13 1 21 16
M  V30 14 1 22 1
M  V30 15 1 22 20
M  V30 16 1 23 8
M  V30 17 1 23 9
M  V30 18 1 24 5
M  V30 19 1 24 10
M  V30 20 1 24 23
M  V30 21 2 25 2
M  V30 22 1 25 4
M  V30 23 1 26 3
M  V30 24 1 27 6
M  V30 25 2 27 26
M  V30 26 2 28 6
M  V30 27 1 28 11
M  V30 28 1 28 13
M  V30 29 1 29 7
M  V30 30 1 29 22
M  V30 31 1 29 25
M  V30 32 1 30 1
M  V30 33 1 31 1
M  V30 34 1 32 4
M  V30 35 1 33 4
M  V30 36 1 5 34 CFG=1
M  V30 37 1 35 7
M  V30 38 1 36 7
M  V30 39 1 37 8
M  V30 40 1 38 8
M  V30 41 1 39 9
M  V30 42 1 40 9
M  V30 43 1 41 9
M  V30 44 1 42 11
M  V30 45 1 43 12
M  V30 46 1 44 12
M  V30 47 1 45 12
M  V30 48 1 46 15
M  V30 49 1 47 15
M  V30 50 1 16 48 CFG=3
M  V30 51 1 49 19
M  V30 52 1 50 19
M  V30 53 1 51 19
M  V30 54 1 52 20
M  V30 55 1 53 20
M  V30 56 1 54 21
M  V30 57 1 55 21
M  V30 58 1 22 56 CFG=3
M  V30 59 1 23 57 CFG=1
M  V30 60 1 58 26
M  V30 61 1 59 27
M  V30 62 1 29 60 CFG=3
M  V30 63 1 17 61 CFG=3
M  V30 END BOND
M  V30 END CTAB
M  END
>  <i_epik_Tot_Q>  (1) 
1

>  <i_epik_Tot_abs_Q>  (1) 
1

>  <i_i_glide_confnum>  (1) 
360

>  <i_i_glide_lignum>  (1) 
11

>  <i_i_glide_posenum>  (1) 
151

>  <i_i_glide_rotatable_bonds>  (1) 
8

>  <i_lp_mmshare_version>  (1) 
72125

>  <i_m_source_file_index>  (1) 
9

>  <i_f3d_flags>  (1) 
0

>  <num_sample>  (1) 
100

>  <b_lp_Chiralities_Consistent>  (1) 
1

>  <r_epik_Charging_Adjusted_Penalty>  (1) 
0.26758124344448359

>  <r_epik_Ionization_Penalty>  (1) 
0.27573061112751834

>  <r_epik_Ionization_Penalty_Charging>  (1) 
0.017350130917063531

>  <r_epik_Ionization_Penalty_Neutral>  (1) 
0.25838048021045479

>  <r_epik_State_Penalty>  (1) 
0.25023111252742003

>  <r_glide_ring_energy>  (1) 
1.6748309522073581

>  <r_i_docking_score>  (1) 
-4.6747863583969647

>  <r_i_glide_ecoul>  (1) 
-2.4141720850695387

>  <r_i_glide_eff_state_penalty>  (1) 
0.25023111252742003

>  <r_i_glide_einternal>  (1) 
21.281361386868944

>  <r_i_glide_emodel>  (1) 
-30.067556634212195

>  <r_i_glide_emodel_strain>  (1) 
3.1540886714904701

>  <r_i_glide_energy>  (1) 
-27.977289993918433

>  <r_i_glide_erotb>  (1) 
0.54307168116637361

>  <r_i_glide_esite>  (1) 
-0.079262094814802564

>  <r_i_glide_evdw>  (1) 
-25.563117908848895

>  <r_i_glide_gscore>  (1) 
-4.9250174709243844

>  <r_i_glide_gscore_strain>  (1) 
0

>  <r_i_glide_hbond>  (1) 
-0.029422801814407842

>  <r_i_glide_ligand_efficiency>  (1) 
-0.16119952959989534

>  <r_i_glide_ligand_efficiency_ln>  (1) 
-1.07040753371897

>  <r_i_glide_ligand_efficiency_sa>  (1) 
-0.49525602708240229

>  <r_i_glide_lipo>  (1) 
-1.9116917834700109

>  <r_i_glide_metal>  (1) 
-0

>  <r_i_glide_rewards>  (1) 
-1.8074307637886609

>  <r_lp_Energy>  (1) 
46.913368999999996

>  <r_lp_tautomer_probability>  (1) 
1

>  <s_epik_Chemistry_Notes>  (1) 
This compound contains an acetal/aminal-like group ( X-CH(R)-Y where X, Y are N, S, or O) that may be acid/base labile, releasing an aldehyde. This compound has a N-S or N-O group and may undergo hydrolysis at high or low pH.

>  <s_epik_cmdline>  (1) 
J2VwaWtfcHl0aG9uJywgJy1waHQnLCAnMS4wJywgJy1waCcsICc3LjQnLCAnLXRuJywgJzgnLCAnLW1hJywgJzUwMCcsICctaW1hZScsICc8aW5maWxlLm1hZT4nLCAnLW9tYWUnLCAnPG91dGZpbGUubWFlPic=

>  <s_epik_input>  (1) 
Tz1DKFtOSDJdKVtDQEBIXShbTkgyXSlbQ0hdKFtDSDJdMSlbQ0gyXU4xU1tDQEBIXTJbQ0gyXVtDSDJdW0NASF0oTihPW0NIM10pW0NASF0oW0NIM10pW0NIMl1bQ0gzXSlPYyhjMjMpW2NIXWMoRilbY0hdW2NIXTM=

>  <s_glide_docking_method>  (1) 
confgen

>  <s_i_glide_gridfile>  (1) 
gpcr_drd2_6luq_protein_autoprepared_prepared

>  <s_lp_Force_Field>  (1) 
S-OPLS

>  <s_lp_Variant>  (1) 
DiffSBDD_8-1

>  <s_m_source_file>  (1) 
generated_generic_title2_ligand_DiffSBDD_2026-06-23_prepared.sdf

>  <GenAI_Model>  (1) 
DiffSBDD

>  <Protein>  (1) 
generic_title2

$$$$
DiffSBDD_76
     RDKit          3D

  0  0  0  0  0  0  0  0  0  0999 V3000
M  V30 BEGIN CTAB
M  V30 COUNTS 53 56 0 0 1
M  V30 BEGIN ATOM
M  V30 1 N 8.373835 5.309539 -13.029589 0
M  V30 2 N 11.328928 7.756229 -4.928690 0
M  V30 3 C 7.769514 5.088656 -15.475153 0 CFG=2
M  V30 4 C 10.472325 7.241906 -5.991542 0
M  V30 5 F 9.775485 7.801581 -11.771183 0
M  V30 6 C 11.775503 8.973877 -4.705026 0
M  V30 7 C 6.942119 5.686296 -16.630249 0
M  V30 8 C 7.564554 5.825043 -14.129888 0
M  V30 9 C 9.417043 5.421088 -8.364306 0
M  V30 10 C 7.760978 5.777029 -11.792480 0
M  V30 11 C 5.407537 6.790763 -18.737241 0
M  V30 12 N 11.775415 6.944788 -3.953332 0
M  V30 13 C 6.597368 6.098264 -19.027294 0
M  V30 14 C 4.980694 6.935559 -17.406467 0
M  V30 15 C 8.634568 4.808574 -18.324174 0
M  V30 16 N 11.440501 9.990267 -5.583279 0
M  V30 17 C 9.412052 4.206205 -17.154565 0
M  V30 18 C 5.740046 6.389239 -16.355433 0
M  V30 19 C 10.375004 6.455407 -8.400627 0
M  V30 20 C 9.250247 4.995486 -15.861026 0
M  V30 21 O 9.053273 4.673041 -19.473124 0
M  V30 22 C 10.500934 7.253936 -9.557448 0
M  V30 23 N 12.520148 9.119465 -3.632187 0
M  V30 24 C 11.267310 6.712472 -7.195156 0
M  V30 25 C 8.582624 5.190229 -9.472994 0
M  V30 26 C 9.664524 7.022686 -10.668399 0
M  V30 27 C 8.700913 5.990221 -10.624680 0
M  V30 28 C 12.478069 7.807091 -3.185035 0
M  V30 29 C 7.371315 5.541405 -17.983477 0
M  V30 30 H 8.319192 4.300939 -13.042443 0
M  V30 31 H 7.399153 4.070714 -15.342344 0
M  V30 32 H 9.833636 6.456647 -5.583999 0
M  V30 33 H 9.797248 8.037947 -6.309186 0
M  V30 34 H 6.520418 5.713935 -13.836535 0
M  V30 35 H 7.764714 6.891889 -14.244148 0
M  V30 36 H 9.316581 4.810482 -7.483313 0
M  V30 37 H 6.955661 5.097792 -11.509086 0
M  V30 38 H 7.291371 6.750541 -11.949541 0
M  V30 39 H 4.820730 7.213011 -19.539339 0
M  V30 40 H 6.918424 5.992623 -20.053888 0
M  V30 41 H 4.066361 7.468985 -17.189442 0
M  V30 42 H 11.765083 10.935207 -5.442383 0
M  V30 43 H 10.865275 9.818616 -6.394631 0
M  V30 44 H 9.075345 3.179385 -17.012060 0
M  V30 45 H 10.466524 4.154867 -17.426362 0
M  V30 46 H 5.397641 6.508375 -15.341263 0
M  V30 47 H 9.675686 5.990186 -15.985063 0
M  V30 48 H 9.828743 4.510684 -15.075345 0
M  V30 49 H 11.231861 8.048004 -9.590604 0
M  V30 50 H 12.046760 7.423225 -7.472617 0
M  V30 51 H 11.775462 5.787661 -6.919158 0
M  V30 52 H 7.840569 4.406456 -9.433989 0
M  V30 53 H 12.975447 7.482879 -2.283105 0
M  V30 END ATOM
M  V30 BEGIN BOND
M  V30 1 1 4 2
M  V30 2 1 6 2
M  V30 3 1 7 3
M  V30 4 1 8 1
M  V30 5 1 8 3
M  V30 6 1 10 1
M  V30 7 1 12 2
M  V30 8 1 13 11
M  V30 9 2 14 11
M  V30 10 1 16 6
M  V30 11 1 17 15
M  V30 12 2 18 7
M  V30 13 1 18 14
M  V30 14 1 19 9
M  V30 15 1 20 3
M  V30 16 1 20 17
M  V30 17 2 21 15
M  V30 18 2 22 19
M  V30 19 2 23 6
M  V30 20 1 24 4
M  V30 21 1 24 19
M  V30 22 2 25 9
M  V30 23 1 26 5
M  V30 24 1 26 22
M  V30 25 1 27 10
M  V30 26 1 27 25
M  V30 27 2 27 26
M  V30 28 2 28 12
M  V30 29 1 28 23
M  V30 30 1 29 7
M  V30 31 2 29 13
M  V30 32 1 29 15
M  V30 33 1 30 1
M  V30 34 1 3 31 CFG=1
M  V30 35 1 32 4
M  V30 36 1 33 4
M  V30 37 1 34 8
M  V30 38 1 35 8
M  V30 39 1 36 9
M  V30 40 1 37 10
M  V30 41 1 38 10
M  V30 42 1 39 11
M  V30 43 1 40 13
M  V30 44 1 41 14
M  V30 45 1 42 16
M  V30 46 1 43 16
M  V30 47 1 44 17
M  V30 48 1 45 17
M  V30 49 1 46 18
M  V30 50 1 47 20
M  V30 51 1 48 20
M  V30 52 1 49 22
M  V30 53 1 50 24
M  V30 54 1 51 24
M  V30 55 1 52 25
M  V30 56 1 53 28
M  V30 END BOND
M  V30 END CTAB
M  END
>  <i_epik_Tot_Q>  (1) 
0

>  <i_epik_Tot_abs_Q>  (1) 
0

>  <i_i_glide_confnum>  (1) 
62

>  <i_i_glide_lignum>  (1) 
126

>  <i_i_glide_posenum>  (1) 
74

>  <i_i_glide_rotatable_bonds>  (1) 
7

>  <i_lp_mmshare_version>  (1) 
72125

>  <i_m_source_file_index>  (1) 
77

>  <i_f3d_flags>  (1) 
0

>  <num_sample>  (1) 
100

>  <b_lp_Chiralities_Consistent>  (1) 
1

>  <r_epik_Charging_Adjusted_Penalty>  (1) 
1.3366453936174523

>  <r_epik_Ionization_Penalty>  (1) 
1.3374163863907844

>  <r_epik_Ionization_Penalty_Charging>  (1) 
0

>  <r_epik_Ionization_Penalty_Neutral>  (1) 
1.3374163863907844

>  <r_epik_State_Penalty>  (1) 
1.3366453936174523

>  <r_glide_ring_energy>  (1) 
0

>  <r_i_docking_score>  (1) 
-4.6736143051071783

>  <r_i_glide_ecoul>  (1) 
0.25350780008197371

>  <r_i_glide_eff_state_penalty>  (1) 
1.3366453936174523

>  <r_i_glide_einternal>  (1) 
8.487331266124313

>  <r_i_glide_emodel>  (1) 
-54.495998029230599

>  <r_i_glide_emodel_strain>  (1) 
0.17000104099177094

>  <r_i_glide_energy>  (1) 
-42.942481292507715

>  <r_i_glide_erotb>  (1) 
0.75709287640511513

>  <r_i_glide_esite>  (1) 
-0.038562139594940051

>  <r_i_glide_evdw>  (1) 
-43.195989092589691

>  <r_i_glide_gscore>  (1) 
-6.0102596987246306

>  <r_i_glide_gscore_strain>  (1) 
0

>  <r_i_glide_hbond>  (1) 
0

>  <r_i_glide_ligand_efficiency>  (1) 
-0.16115911396921304

>  <r_i_glide_ligand_efficiency_ln>  (1) 
-1.070139163236316

>  <r_i_glide_ligand_efficiency_sa>  (1) 
-0.49513185746023641

>  <r_i_glide_lipo>  (1) 
-1.8969190392058948

>  <r_i_glide_metal>  (1) 
-0

>  <r_i_glide_rewards>  (1) 
-2.7100981117117224

>  <r_lp_Energy>  (1) 
25.694416999999998

>  <r_lp_tautomer_probability>  (1) 
0.99994999147066566

>  <s_epik_cmdline>  (1) 
J2VwaWtfcHl0aG9uJywgJy1waHQnLCAnMS4wJywgJy1waCcsICc3LjQnLCAnLXRuJywgJzgnLCAnLW1hJywgJzUwMCcsICctaW1hZScsICc8aW5maWxlLm1hZT4nLCAnLW9tYWUnLCAnPG91dGZpbGUubWFlPic=

>  <s_epik_input>  (1) 
W2NIXTFbY0hdW2NIXVtjSF1jKGMxMilDKD1PKVtDSDJdW0NIMl1bQ0BIXTJbQ0gyXVtOSF1bQ0gyXWMoYyhGKVtjSF0zKVtjSF1bY0hdYzNbQ0gyXVtDSDJdbjRjKFtOSDJdKW5bY0hdbjQ=

>  <s_glide_docking_method>  (1) 
confgen

>  <s_i_glide_gridfile>  (1) 
gpcr_drd2_6luq_protein_autoprepared_prepared

>  <s_lp_Force_Field>  (1) 
S-OPLS

>  <s_lp_Variant>  (1) 
DiffSBDD_76-3

>  <s_m_source_file>  (1) 
generated_generic_title2_ligand_DiffSBDD_2026-06-23_prepared.sdf

>  <GenAI_Model>  (1) 
DiffSBDD

>  <Protein>  (1) 
generic_title2

$$$$
DiffSBDD_78
     RDKit          3D

  0  0  0  0  0  0  0  0  0  0999 V3000
M  V30 BEGIN CTAB
M  V30 COUNTS 81 85 0 0 1
M  V30 BEGIN ATOM
M  V30 1 C 9.607137 5.989889 -7.858908 0 CFG=2
M  V30 2 C 8.449446 5.064504 -8.259692 0
M  V30 3 C 6.877902 2.845876 -13.404173 0 CFG=1
M  V30 4 C 6.996867 4.662838 -15.494339 0 CFG=2
M  V30 5 C 9.493723 6.461210 -6.397541 0
M  V30 6 N 5.968826 6.209571 -17.195209 0 CHG=1
M  V30 7 C 8.328495 4.077056 -14.978571 0 CFG=1
M  V30 8 C 7.830566 5.108118 -12.707217 0 CFG=1
M  V30 9 N 9.620904 7.215967 -8.695567 0 CFG=1 CHG=1
M  V30 10 C 9.793235 8.375729 -7.808370 0
M  V30 11 N 7.650365 6.480023 -12.110937 0 CFG=2 CHG=1
M  V30 12 C 5.407959 4.402408 -12.047106 0
M  V30 13 C 7.154263 5.928979 -16.350706 0
M  V30 14 C 5.133994 7.522382 -19.058753 0
M  V30 15 O 6.108089 4.880258 -14.370230 0
M  V30 16 C 6.720475 7.391884 -12.818566 0
M  V30 17 C 5.311971 7.948931 -20.529336 0 CFG=1
M  V30 18 C 8.182931 2.145790 -13.062431 0
M  V30 19 C 6.534386 4.320558 -13.102946 0 CFG=2
M  V30 20 F 6.430557 8.666764 -20.643552 0
M  V30 21 C 9.269446 7.965978 -6.445987 0
M  V30 22 C 5.737069 3.671953 -10.740135 0
M  V30 23 O 6.344140 5.497281 -19.441387 0
M  V30 24 C 8.855374 5.015087 -13.867845 0
M  V30 25 C 5.472784 6.689266 -21.404457 0 CFG=1
M  V30 26 C 10.025703 6.482623 -11.069432 0
M  V30 27 C 6.348741 6.658115 -18.673552 0 CFG=2
M  V30 28 C 10.567739 7.228787 -9.839986 0
M  V30 29 C 8.891833 7.244697 -11.787452 0
M  V30 30 C 4.182216 8.875069 -21.003865 0
M  V30 31 C 6.559583 5.752902 -20.831859 0
M  V30 32 C 7.952307 2.697417 -14.451837 0 CFG=1
M  V30 33 F 4.325232 6.013880 -21.490318 0
M  V30 34 H 10.547642 5.447760 -7.969486 0
M  V30 35 H 8.367842 4.214790 -7.585452 0
M  V30 36 H 7.494888 5.589279 -8.244135 0
M  V30 37 H 8.583651 4.653917 -9.255565 0
M  V30 38 H 6.007764 2.205952 -13.541487 0
M  V30 39 H 6.575410 3.894345 -16.137312 0
M  V30 40 H 10.412381 6.231358 -5.857055 0
M  V30 41 H 8.670088 5.989967 -5.867047 0
M  V30 42 H 5.393843 5.380676 -17.247939 0
M  V30 43 H 9.058293 3.974953 -15.782994 0
M  V30 44 H 8.238554 4.544746 -11.874967 0
M  V30 45 H 10.842701 8.667969 -7.738942 0
M  V30 46 H 9.213347 9.190449 -8.222261 0
M  V30 47 H 4.495765 3.990227 -12.474009 0
M  V30 48 H 5.155564 5.428313 -11.792996 0
M  V30 49 H 7.368182 6.790302 -15.723691 0
M  V30 50 H 8.017740 5.790325 -17.003013 0
M  V30 51 H 4.213079 6.949092 -18.933329 0
M  V30 52 H 5.081146 8.389696 -18.401975 0
M  V30 53 H 7.191937 7.831914 -13.697382 0
M  V30 54 H 5.779336 6.950736 -13.134223 0
M  V30 55 H 6.462334 8.195579 -12.126085 0
M  V30 56 H 8.145072 1.063606 -12.952244 0
M  V30 57 H 8.939426 2.618850 -12.444167 0
M  V30 58 H 9.773499 8.489968 -5.633547 0
M  V30 59 H 8.201406 8.184476 -6.385011 0
M  V30 60 H 4.975331 3.859533 -9.987140 0
M  V30 61 H 6.683629 3.995282 -10.315036 0
M  V30 62 H 5.775410 2.594882 -10.886588 0
M  V30 63 H 9.814367 4.659725 -13.494150 0
M  V30 64 H 9.040303 5.990055 -14.302030 0
M  V30 65 H 5.726872 6.969933 -22.427967 0
M  V30 66 H 9.774874 5.464118 -10.799211 0
M  V30 67 H 10.843531 6.385898 -11.784844 0
M  V30 68 H 7.300549 7.190006 -18.718371 0
M  V30 69 H 11.526088 6.817169 -9.522325 0
M  V30 70 H 10.772050 8.260147 -10.133126 0
M  V30 71 H 9.298073 7.681681 -12.699773 0
M  V30 72 H 8.588201 8.101415 -11.183601 0
M  V30 73 H 3.214178 8.390239 -20.922773 0
M  V30 74 H 4.142019 9.785865 -20.405671 0
M  V30 75 H 4.319804 9.167714 -22.045056 0
M  V30 76 H 7.548073 6.194361 -20.967060 0
M  V30 77 H 6.565419 4.805754 -21.371570 0
M  V30 78 H 7.763463 1.960416 -15.230792 0
M  V30 79 H 8.673258 7.327392 -9.049757 0
M  V30 80 H 7.196430 6.319992 -11.219056 0
M  V30 81 H 5.429088 6.934210 -16.743699 0
M  V30 END ATOM
M  V30 BEGIN BOND
M  V30 1 1 2 1
M  V30 2 1 5 1
M  V30 3 1 7 4
M  V30 4 1 9 1
M  V30 5 1 10 9
M  V30 6 1 11 8
M  V30 7 1 13 4
M  V30 8 1 13 6
M  V30 9 1 15 4
M  V30 10 1 16 11
M  V30 11 1 17 14
M  V30 12 1 18 3
M  V30 13 1 19 3
M  V30 14 1 19 8
M  V30 15 1 19 12 CFG=1
M  V30 16 1 19 15
M  V30 17 1 17 20 CFG=1
M  V30 18 1 21 5
M  V30 19 1 21 10
M  V30 20 1 22 12
M  V30 21 1 24 7
M  V30 22 1 24 8
M  V30 23 1 25 17
M  V30 24 1 27 6
M  V30 25 1 27 14
M  V30 26 1 27 23
M  V30 27 1 28 9
M  V30 28 1 28 26
M  V30 29 1 29 11
M  V30 30 1 29 26
M  V30 31 1 30 17
M  V30 32 1 31 23
M  V30 33 1 31 25
M  V30 34 1 32 3
M  V30 35 1 32 7
M  V30 36 1 32 18
M  V30 37 1 33 25
M  V30 38 1 1 34 CFG=1
M  V30 39 1 35 2
M  V30 40 1 36 2
M  V30 41 1 37 2
M  V30 42 1 3 38 CFG=3
M  V30 43 1 4 39 CFG=3
M  V30 44 1 40 5
M  V30 45 1 41 5
M  V30 46 1 42 6
M  V30 47 1 7 43 CFG=3
M  V30 48 1 8 44 CFG=1
M  V30 49 1 45 10
M  V30 50 1 46 10
M  V30 51 1 47 12
M  V30 52 1 48 12
M  V30 53 1 49 13
M  V30 54 1 50 13
M  V30 55 1 51 14
M  V30 56 1 52 14
M  V30 57 1 53 16
M  V30 58 1 54 16
M  V30 59 1 55 16
M  V30 60 1 56 18
M  V30 61 1 57 18
M  V30 62 1 58 21
M  V30 63 1 59 21
M  V30 64 1 60 22
M  V30 65 1 61 22
M  V30 66 1 62 22
M  V30 67 1 63 24
M  V30 68 1 64 24
M  V30 69 1 25 65 CFG=3
M  V30 70 1 66 26
M  V30 71 1 67 26
M  V30 72 1 27 68 CFG=1
M  V30 73 1 69 28
M  V30 74 1 70 28
M  V30 75 1 71 29
M  V30 76 1 72 29
M  V30 77 1 73 30
M  V30 78 1 74 30
M  V30 79 1 75 30
M  V30 80 1 76 31
M  V30 81 1 77 31
M  V30 82 1 32 78 CFG=3
M  V30 83 1 9 79 CFG=3
M  V30 84 1 11 80 CFG=1
M  V30 85 1 81 6
M  V30 END BOND
M  V30 END CTAB
M  END
>  <i_epik_Tot_Q>  (1) 
3

>  <i_epik_Tot_abs_Q>  (1) 
3

>  <i_i_glide_confnum>  (1) 
451

>  <i_i_glide_lignum>  (1) 
134

>  <i_i_glide_posenum>  (1) 
381

>  <i_i_glide_rotatable_bonds>  (1) 
9

>  <i_lp_mmshare_version>  (1) 
72125

>  <i_m_source_file_index>  (1) 
79

>  <i_f3d_flags>  (1) 
0

>  <num_sample>  (1) 
100

>  <b_lp_Chiralities_Consistent>  (1) 
1

>  <r_epik_Charging_Adjusted_Penalty>  (1) 
1.7942086838225126

>  <r_epik_Ionization_Penalty>  (1) 
0.94562311220168549

>  <r_epik_Ionization_Penalty_Charging>  (1) 
0.94562311220168382

>  <r_epik_Ionization_Penalty_Neutral>  (1) 
1.710257484888175e-15

>  <r_epik_State_Penalty>  (1) 
0.84858557162082893

>  <r_glide_ring_energy>  (1) 
0

>  <r_i_docking_score>  (1) 
-4.6719511774217857

>  <r_i_glide_ecoul>  (1) 
-7.5312646960646639

>  <r_i_glide_eff_state_penalty>  (1) 
0.84858557162082893

>  <r_i_glide_einternal>  (1) 
16.808332614128716

>  <r_i_glide_emodel>  (1) 
-41.584548544458258

>  <r_i_glide_emodel_strain>  (1) 
4.8725159261793607

>  <r_i_glide_energy>  (1) 
-39.327200532214597

>  <r_i_glide_erotb>  (1) 
0.72404097212868179

>  <r_i_glide_esite>  (1) 
-0.17021295363599875

>  <r_i_glide_evdw>  (1) 
-31.795935836149933

>  <r_i_glide_gscore>  (1) 
-5.5205367490426145

>  <r_i_glide_gscore_strain>  (1) 
0.21812898154484017

>  <r_i_glide_hbond>  (1) 
-0.21833693556598011

>  <r_i_glide_ligand_efficiency>  (1) 
-0.14157427810369047

>  <r_i_glide_ligand_efficiency_ln>  (1) 
-1.039017751790033

>  <r_i_glide_ligand_efficiency_sa>  (1) 
-0.45410435726196369

>  <r_i_glide_lipo>  (1) 
-1.7566656042670881

>  <r_i_glide_metal>  (1) 
-0

>  <r_i_glide_rewards>  (1) 
-1.5980047130298738

>  <r_lp_Energy>  (1) 
74.691324999999992

>  <s_epik_Chemistry_Notes>  (1) 
This compound contains an acetal/aminal-like group ( X-CH(R)-Y where X, Y are N, S, or O) that may be acid/base labile, releasing an aldehyde.

>  <s_epik_cmdline>  (1) 
J2VwaWtfcHl0aG9uJywgJy1waHQnLCAnMS4wJywgJy1waCcsICc3LjQnLCAnLXRuJywgJzgnLCAnLW1hJywgJzUwMCcsICctaW1hZScsICc8aW5maWxlLm1hZT4nLCAnLW9tYWUnLCAnPG91dGZpbGUubWFlPic=

>  <s_epik_input>  (1) 
W0NIM11bQ0BASF0xW0NIMl1bQ0gyXVtDSDJdTjFbQ0gyXVtDSDJdW0NIMl1OKFtDSDNdKVtDQEBIXTJbQ0gyXVtDQEBIXShbQ0BASF0oW0NIMl0zKVtDQEBIXTNbQ0BAXTI0W0NIMl1bQ0gzXSlbQ0BASF0oTzQpW0NIMl1bTkhdW0NASF0oW0NIMl1bQ0BdNShGKVtDSDNdKU9bQ0gyXVtDQEhdNUY=

>  <s_glide_docking_method>  (1) 
confgen

>  <s_i_glide_gridfile>  (1) 
gpcr_drd2_6luq_protein_autoprepared_prepared

>  <s_lp_Force_Field>  (1) 
S-OPLS

>  <s_lp_Variant>  (1) 
DiffSBDD_78-6

>  <s_m_source_file>  (1) 
generated_generic_title2_ligand_DiffSBDD_2026-06-23_prepared.sdf

>  <GenAI_Model>  (1) 
DiffSBDD

>  <Protein>  (1) 
generic_title2

$$$$
DiffSBDD_94
     RDKit          3D

  0  0  0  0  0  0  0  0  0  0999 V3000
M  V30 BEGIN CTAB
M  V30 COUNTS 66 70 0 0 1
M  V30 BEGIN ATOM
M  V30 1 C 6.457217 7.456676 -14.872972 0
M  V30 2 C 8.975309 7.713685 -11.257721 0
M  V30 3 O 10.875919 10.253847 -5.073955 0
M  V30 4 C 7.249652 7.444154 -13.553050 0
M  V30 5 C 10.805281 8.986763 -5.697573 0 CFG=1
M  V30 6 N 8.786412 7.599993 -21.364671 0
M  V30 7 C 8.319476 8.714031 -21.986414 0
M  V30 8 C 6.264786 6.054921 -15.461823 0 CFG=2
M  V30 9 C 6.736922 7.384453 -20.257175 0
M  V30 10 C 12.078474 8.661143 -6.433530 0 CFG=1
M  V30 11 Cl 7.375508 3.636091 -16.087809 0
M  V30 12 C 11.775405 8.042445 -5.070694 0
M  V30 13 C 5.916412 6.571421 -19.255985 0 CFG=2
M  V30 14 C 8.626758 5.670674 -10.937535 0
M  V30 15 C 9.054199 6.481122 -12.146291 0 CFG=1
M  V30 16 C 7.601940 5.308669 -15.505571 0 CFG=2
M  V30 17 C 10.601005 7.707882 -8.335230 0 CFG=1
M  V30 18 C 4.417488 6.649952 -19.514302 0
M  V30 19 C 7.030600 9.222824 -21.768069 0
M  V30 20 O 9.159676 4.390388 -13.948455 0
M  V30 21 N 7.994856 6.934061 -20.499802 0
M  V30 22 N 9.112890 6.790221 -10.126556 0 CFG=1 CHG=1
M  V30 23 C 12.023242 7.828185 -7.722036 0
M  V30 24 N 8.212232 6.340302 -13.347457 0
M  V30 25 F 13.103992 9.590224 -6.385321 0
M  V30 26 C 10.456852 6.702996 -9.497572 0
M  V30 27 C 6.208322 8.537640 -20.872558 0
M  V30 28 C 9.456890 8.444539 -6.144287 0
M  V30 29 O 8.995812 6.332250 -7.175953 0
M  V30 30 C 8.382384 5.302223 -14.190820 0
M  V30 31 C 6.234852 6.983567 -17.813401 0
M  V30 32 C 9.619346 7.391459 -7.212930 0
M  V30 33 N 5.632822 6.076897 -16.807082 0 CHG=1
M  V30 34 H 6.975500 8.109830 -15.570199 0
M  V30 35 H 5.487876 7.931524 -14.716438 0
M  V30 36 H 8.025898 8.242890 -11.215024 0
M  V30 37 H 9.810642 8.400546 -11.381064 0
M  V30 38 H 10.716969 10.155336 -4.148489 0
M  V30 39 H 6.531687 7.403582 -12.731845 0
M  V30 40 H 7.775286 8.396327 -13.474285 0
M  V30 41 H 8.995939 9.205284 -22.669204 0
M  V30 42 H 5.593117 5.499351 -14.804605 0
M  V30 43 H 12.356001 8.392640 -4.218917 0
M  V30 44 H 11.512157 6.986286 -5.038080 0
M  V30 45 H 6.215589 5.529952 -19.386825 0
M  V30 46 H 9.159130 4.728028 -10.802346 0
M  V30 47 H 7.544745 5.551088 -10.848550 0
M  V30 48 H 10.105188 6.281789 -12.375756 0
M  V30 49 H 8.283853 5.773393 -16.215633 0
M  V30 50 H 10.329210 8.695178 -8.710128 0
M  V30 51 H 4.181292 6.361087 -20.540257 0
M  V30 52 H 3.866273 5.990245 -18.851615 0
M  V30 53 H 4.027784 7.653011 -19.337852 0
M  V30 54 H 6.688251 10.112817 -22.275596 0
M  V30 55 H 12.385332 6.833562 -7.472693 0
M  V30 56 H 12.712027 8.254201 -8.451370 0
M  V30 57 H 11.237956 6.862226 -10.239699 0
M  V30 58 H 10.575130 5.692040 -9.106647 0
M  V30 59 H 5.208567 8.883519 -20.662824 0
M  V30 60 H 8.975655 7.985289 -5.305676 0
M  V30 61 H 8.801191 9.190204 -6.565359 0
M  V30 62 H 5.862079 7.990219 -17.618110 0
M  V30 63 H 7.316733 6.990811 -17.714011 0
M  V30 64 H 5.686985 5.132905 -17.165437 0
M  V30 65 H 4.657113 6.319806 -16.708678 0
M  V30 66 H 8.383063 7.039113 -9.453846 0
M  V30 END ATOM
M  V30 BEGIN BOND
M  V30 1 1 4 1
M  V30 2 1 5 3 CFG=1
M  V30 3 1 7 6
M  V30 4 1 8 1
M  V30 5 1 10 5
M  V30 6 1 12 5
M  V30 7 1 12 10
M  V30 8 1 13 9
M  V30 9 1 15 2
M  V30 10 1 15 14
M  V30 11 1 16 8
M  V30 12 1 16 11
M  V30 13 1 18 13
M  V30 14 2 19 7
M  V30 15 2 21 6
M  V30 16 1 21 9
M  V30 17 1 22 2
M  V30 18 1 22 14
M  V30 19 1 23 10
M  V30 20 1 23 17
M  V30 21 1 24 4
M  V30 22 1 24 15
M  V30 23 1 10 25 CFG=1
M  V30 24 1 26 17
M  V30 25 1 26 22
M  V30 26 2 27 9
M  V30 27 1 27 19
M  V30 28 1 28 5
M  V30 29 1 30 16
M  V30 30 2 30 20
M  V30 31 1 30 24
M  V30 32 1 31 13
M  V30 33 1 32 17
M  V30 34 1 32 28
M  V30 35 2 32 29
M  V30 36 1 33 8
M  V30 37 1 33 31
M  V30 38 1 34 1
M  V30 39 1 35 1
M  V30 40 1 36 2
M  V30 41 1 37 2
M  V30 42 1 38 3
M  V30 43 1 39 4
M  V30 44 1 40 4
M  V30 45 1 41 7
M  V30 46 1 8 42 CFG=1
M  V30 47 1 43 12
M  V30 48 1 44 12
M  V30 49 1 13 45 CFG=1
M  V30 50 1 46 14
M  V30 51 1 47 14
M  V30 52 1 15 48 CFG=3
M  V30 53 1 16 49 CFG=3
M  V30 54 1 17 50 CFG=3
M  V30 55 1 51 18
M  V30 56 1 52 18
M  V30 57 1 53 18
M  V30 58 1 54 19
M  V30 59 1 55 23
M  V30 60 1 56 23
M  V30 61 1 57 26
M  V30 62 1 58 26
M  V30 63 1 59 27
M  V30 64 1 60 28
M  V30 65 1 61 28
M  V30 66 1 62 31
M  V30 67 1 63 31
M  V30 68 1 64 33
M  V30 69 1 65 33
M  V30 70 1 22 66 CFG=1
M  V30 END BOND
M  V30 END CTAB
M  END
>  <i_epik_Tot_Q>  (1) 
2

>  <i_epik_Tot_abs_Q>  (1) 
2

>  <i_i_glide_confnum>  (1) 
469

>  <i_i_glide_lignum>  (1) 
178

>  <i_i_glide_posenum>  (1) 
180

>  <i_i_glide_rotatable_bonds>  (1) 
8

>  <i_lp_mmshare_version>  (1) 
72125

>  <i_m_source_file_index>  (1) 
95

>  <i_f3d_flags>  (1) 
0

>  <num_sample>  (1) 
100

>  <b_lp_Chiralities_Consistent>  (1) 
1

>  <r_epik_Charging_Adjusted_Penalty>  (1) 
0.95188217531897845

>  <r_epik_Ionization_Penalty>  (1) 
0.49022780398244736

>  <r_epik_Ionization_Penalty_Charging>  (1) 
0.49020808109847258

>  <r_epik_Ionization_Penalty_Neutral>  (1) 
1.9722883974789891e-05

>  <r_epik_State_Penalty>  (1) 
0.46167409422050587

>  <r_glide_ring_energy>  (1) 
1.7669255487403019

>  <r_i_docking_score>  (1) 
-4.6632263431522691

>  <r_i_glide_ecoul>  (1) 
-3.778134100046322

>  <r_i_glide_eff_state_penalty>  (1) 
0.46167409422050587

>  <r_i_glide_einternal>  (1) 
16.40746567338272

>  <r_i_glide_emodel>  (1) 
-29.050087796431107

>  <r_i_glide_emodel_strain>  (1) 
1.4721923795519558

>  <r_i_glide_energy>  (1) 
-27.242696734981141

>  <r_i_glide_erotb>  (1) 
0.52401424714319955

>  <r_i_glide_esite>  (1) 
-0.1583691677963498

>  <r_i_glide_evdw>  (1) 
-23.464562634934818

>  <r_i_glide_gscore>  (1) 
-5.1249004373727747

>  <r_i_glide_gscore_strain>  (1) 
0

>  <r_i_glide_hbond>  (1) 
-0.16049564077745559

>  <r_i_glide_ligand_efficiency>  (1) 
-0.14130988918643239

>  <r_i_glide_ligand_efficiency_ln>  (1) 
-1.0370773938232667

>  <r_i_glide_ligand_efficiency_sa>  (1) 
-0.45325632073338795

>  <r_i_glide_lipo>  (1) 
-2.0144204327065562

>  <r_i_glide_metal>  (1) 
-0

>  <r_i_glide_rewards>  (1) 
-1.5756811964819228

>  <r_lp_Energy>  (1) 
61.542628999999998

>  <r_lp_tautomer_probability>  (1) 
0.99999998000000001

>  <s_epik_cmdline>  (1) 
J2VwaWtfcHl0aG9uJywgJy1waHQnLCAnMS4wJywgJy1waCcsICc3LjQnLCAnLXRuJywgJzgnLCAnLW1hJywgJzUwMCcsICctaW1hZScsICc8aW5maWxlLm1hZT4nLCAnLW9tYWUnLCAnPG91dGZpbGUubWFlPic=

>  <s_epik_input>  (1) 
W2NIXTFbY0hdW2NIXW5uYzFbQ0BIXShbQ0gzXSlbQ0gyXVtOSF1bQ0BASF0yW0NIMl1bQ0gyXU4oQyg9TylbQ0BIXTJDbClbQ0hdM1tDSDJdTihbQ0gyXTMpW0NIMl1bQ0BASF0oQyg9TylbQ0gyXTQpW0NIMl1bQ0BdKEYpKFtDSDJdNSlbQ0BAXTQ1W09IXQ==

>  <s_glide_docking_method>  (1) 
confgen

>  <s_i_glide_gridfile>  (1) 
gpcr_drd2_6luq_protein_autoprepared_prepared

>  <s_lp_Force_Field>  (1) 
S-OPLS

>  <s_lp_Variant>  (1) 
DiffSBDD_94-1

>  <s_m_source_file>  (1) 
generated_generic_title2_ligand_DiffSBDD_2026-06-23_prepared.sdf

>  <GenAI_Model>  (1) 
DiffSBDD

>  <Protein>  (1) 
generic_title2

$$$$
DiffSBDD_18
     RDKit          3D

  0  0  0  0  0  0  0  0  0  0999 V3000
M  V30 BEGIN CTAB
M  V30 COUNTS 38 39 0 0 1
M  V30 BEGIN ATOM
M  V30 1 C 11.368036 6.839738 -4.385029 0
M  V30 2 C 11.775411 6.543719 -3.071154 0
M  V30 3 O 11.375402 9.590226 -6.785028 0
M  V30 4 S 11.013482 7.990226 -9.574110 0
M  V30 5 C 7.007730 7.086476 -14.734410 0
M  V30 6 C 10.311578 7.102783 -11.011717 0
M  V30 7 N 8.975410 6.790269 -10.859663 0
M  V30 8 C 6.300620 6.267219 -13.653672 0
M  V30 9 C 11.097636 8.498980 -6.295093 0
M  V30 10 C 6.943470 5.427972 -11.233403 0 CFG=1
M  V30 11 C 12.132806 9.140548 -4.087442 0
M  V30 12 C 8.211119 6.038839 -11.804673 0 CFG=1
M  V30 13 N 10.378333 7.553277 -6.928520 0
M  V30 14 C 11.539672 8.150400 -4.897668 0
M  V30 15 C 12.536131 8.831774 -2.778137 0
M  V30 16 C 12.359282 7.537656 -2.272119 0
M  V30 17 O 11.009212 6.822310 -11.985024 0
M  V30 18 C 9.769151 7.753790 -8.247307 0
M  V30 19 C 6.844369 6.534433 -12.255568 0 CFG=1
M  V30 20 O 6.706073 4.119039 -11.707470 0
M  V30 21 H 10.919549 6.066594 -4.990510 0
M  V30 22 H 11.639048 5.557079 -2.675530 0
M  V30 23 H 6.552629 6.921918 -15.711292 0
M  V30 24 H 6.975409 8.153536 -14.525493 0
M  V30 25 H 8.053743 6.790225 -14.801219 0
M  V30 26 H 8.513824 7.118029 -10.013735 0
M  V30 27 H 6.398570 5.212831 -13.910662 0
M  V30 28 H 5.234509 6.489949 -13.653697 0
M  V30 29 H 6.665940 5.590227 -10.193066 0
M  V30 30 H 12.268663 10.139922 -4.469840 0
M  V30 31 H 8.768135 5.429736 -12.516268 0
M  V30 32 H 10.193971 6.681536 -6.456281 0
M  V30 33 H 12.975417 9.590225 -2.159559 0
M  V30 34 H 12.672006 7.306885 -1.266309 0
M  V30 35 H 9.080911 8.600849 -8.230181 0
M  V30 36 H 9.171600 6.857734 -8.405925 0
M  V30 37 H 6.559622 7.512947 -11.872601 0
M  V30 38 H 5.775955 3.957073 -11.676562 0
M  V30 END ATOM
M  V30 BEGIN BOND
M  V30 1 1 2 1
M  V30 2 1 6 4
M  V30 3 1 7 6
M  V30 4 1 8 5
M  V30 5 2 9 3
M  V30 6 1 12 7
M  V30 7 1 12 10
M  V30 8 1 13 9
M  V30 9 2 14 1
M  V30 10 1 14 9
M  V30 11 1 14 11
M  V30 12 2 15 11
M  V30 13 2 16 2
M  V30 14 1 16 15
M  V30 15 2 17 6
M  V30 16 1 18 4
M  V30 17 1 18 13
M  V30 18 1 19 8
M  V30 19 1 19 10
M  V30 20 1 19 12
M  V30 21 1 20 10
M  V30 22 1 21 1
M  V30 23 1 22 2
M  V30 24 1 23 5
M  V30 25 1 24 5
M  V30 26 1 25 5
M  V30 27 1 26 7
M  V30 28 1 27 8
M  V30 29 1 28 8
M  V30 30 1 10 29 CFG=1
M  V30 31 1 30 11
M  V30 32 1 12 31 CFG=3
M  V30 33 1 32 13
M  V30 34 1 33 15
M  V30 35 1 34 16
M  V30 36 1 35 18
M  V30 37 1 36 18
M  V30 38 1 19 37 CFG=1
M  V30 39 1 38 20
M  V30 END BOND
M  V30 END CTAB
M  END
>  <i_epik_Tot_Q>  (1) 
0

>  <i_epik_Tot_abs_Q>  (1) 
0

>  <i_i_glide_confnum>  (1) 
54

>  <i_i_glide_lignum>  (1) 
34

>  <i_i_glide_posenum>  (1) 
181

>  <i_i_glide_rotatable_bonds>  (1) 
9

>  <i_lp_mmshare_version>  (1) 
72125

>  <i_m_source_file_index>  (1) 
19

>  <i_f3d_flags>  (1) 
0

>  <num_sample>  (1) 
100

>  <b_lp_Chiralities_Consistent>  (1) 
1

>  <r_epik_Charging_Adjusted_Penalty>  (1) 
0

>  <r_epik_Ionization_Penalty>  (1) 
2.0525633642560989e-05

>  <r_epik_Ionization_Penalty_Charging>  (1) 
0

>  <r_epik_Ionization_Penalty_Neutral>  (1) 
2.0525633642560989e-05

>  <r_epik_State_Penalty>  (1) 
-0

>  <r_glide_ring_energy>  (1) 
0

>  <r_i_docking_score>  (1) 
-4.6613697585490623

>  <r_i_glide_ecoul>  (1) 
-7.3698255365425531

>  <r_i_glide_eff_state_penalty>  (1) 
-0

>  <r_i_glide_einternal>  (1) 
8.412340391519626

>  <r_i_glide_emodel>  (1) 
-48.281374934016668

>  <r_i_glide_emodel_strain>  (1) 
0.72743147541005015

>  <r_i_glide_energy>  (1) 
-40.378051825285212

>  <r_i_glide_erotb>  (1) 
2.5324251451788915

>  <r_i_glide_esite>  (1) 
-0.13036390880702936

>  <r_i_glide_evdw>  (1) 
-33.008226288742662

>  <r_i_glide_gscore>  (1) 
-4.6613697585490623

>  <r_i_glide_gscore_strain>  (1) 
0

>  <r_i_glide_hbond>  (1) 
0

>  <r_i_glide_ligand_efficiency>  (1) 
-0.23306848792745311

>  <r_i_glide_ligand_efficiency_ln>  (1) 
-1.1665871083006827

>  <r_i_glide_ligand_efficiency_sa>  (1) 
-0.63264520950341607

>  <r_i_glide_lipo>  (1) 
-2.144713756355149

>  <r_i_glide_metal>  (1) 
-0

>  <r_i_glide_rewards>  (1) 
-2.1628320936472591

>  <r_lp_Energy>  (1) 
17.543890999999999

>  <r_lp_tautomer_probability>  (1) 
1

>  <s_epik_Chemistry_Notes>  (1) 
This compound contains an acetal/aminal-like group ( X-CH(R)-Y where X, Y are N, S, or O) that may be acid/base labile, releasing an aldehyde.

>  <s_epik_cmdline>  (1) 
J2VwaWtfcHl0aG9uJywgJy1waHQnLCAnMS4wJywgJy1waCcsICc3LjQnLCAnLXRuJywgJzgnLCAnLW1hJywgJzUwMCcsICctaW1hZScsICc8aW5maWxlLm1hZT4nLCAnLW9tYWUnLCAnPG91dGZpbGUubWFlPic=

>  <s_epik_input>  (1) 
W2NIXTFbY0hdW2NIXVtjSF1bY0hdYzFDKD1PKVtOSF1bQ0gyXVNDKD1PKVtOSF1bQ0BASF0oW0NIXTJbT0hdKVtDQEhdMltDSDJdW0NIM10=

>  <s_glide_docking_method>  (1) 
confgen

>  <s_i_glide_gridfile>  (1) 
gpcr_drd2_6luq_protein_autoprepared_prepared

>  <s_lp_Force_Field>  (1) 
S-OPLS

>  <s_lp_Variant>  (1) 
DiffSBDD_18-1

>  <s_m_source_file>  (1) 
generated_generic_title2_ligand_DiffSBDD_2026-06-23_prepared.sdf

>  <GenAI_Model>  (1) 
DiffSBDD

>  <Protein>  (1) 
generic_title2

$$$$
DiffSBDD_6
     RDKit          3D

  0  0  0  0  0  0  0  0  0  0999 V3000
M  V30 BEGIN CTAB
M  V30 COUNTS 72 73 0 0 1
M  V30 BEGIN ATOM
M  V30 1 C 11.676791 7.277193 -4.381890 0
M  V30 2 O 6.805982 0.856526 -18.262982 0
M  V30 3 C 6.847034 1.336372 -14.482736 0 CFG=1
M  V30 4 C 11.830119 8.154815 -2.148800 0
M  V30 5 C 8.666552 5.154516 -10.615111 0
M  V30 6 C 12.424533 9.188294 -10.035953 0
M  V30 7 C 11.508940 7.282595 -9.025911 0 CFG=1
M  V30 8 C 8.324989 4.701646 -14.515785 0
M  V30 9 C 6.321306 -0.063896 -12.409874 0
M  V30 10 C 8.621255 4.457210 -11.976195 0
M  V30 11 C 9.744825 6.239154 -10.513860 0
M  V30 12 C 7.144916 0.046415 -13.703349 0
M  V30 13 C 11.986269 7.451851 -7.572112 0
M  V30 14 O 8.575511 8.388956 -6.385101 0
M  V30 15 F 8.504592 0.732519 -16.006192 0
M  V30 16 C 10.947547 8.215112 -6.714592 0 CFG=1
M  V30 17 C 10.241054 6.434007 -9.063642 0 CFG=2
M  V30 18 O 7.490346 2.457866 -13.900572 0
M  V30 19 C 6.360099 0.721704 -16.927579 0
M  V30 20 C 7.607996 2.870537 -16.175679 0
M  V30 21 C 8.142128 5.351767 -13.131938 0
M  V30 22 C 12.559742 9.566933 -5.260236 0
M  V30 23 C 9.583283 7.491479 -6.785203 0 CFG=2
M  V30 24 O 12.494040 7.544316 -3.243818 0
M  V30 25 C 11.406154 8.536213 -5.258809 0 CFG=2
M  V30 26 C 9.179744 7.120767 -8.214541 0
M  V30 27 C 7.359637 3.535972 -14.815354 0 CFG=2
M  V30 28 O 11.246915 8.538001 -9.631430 0
M  V30 29 C 7.341190 1.380436 -15.938749 0 CFG=1
M  V30 30 H 10.748967 6.789852 -4.076692 0
M  V30 31 H 12.175578 6.506987 -4.958254 0
M  V30 32 H 6.953270 1.772346 -18.439236 0
M  V30 33 H 5.778336 1.518470 -14.448687 0
M  V30 34 H 12.549336 8.356265 -1.355793 0
M  V30 35 H 11.377751 9.106887 -2.429396 0
M  V30 36 H 11.062800 7.499359 -1.735627 0
M  V30 37 H 7.690801 5.572410 -10.362686 0
M  V30 38 H 8.865497 4.390251 -9.864769 0
M  V30 39 H 12.179446 10.190148 -10.371154 0
M  V30 40 H 13.138173 9.200064 -9.217404 0
M  V30 41 H 12.901025 8.665252 -10.863052 0
M  V30 42 H 12.272762 6.790513 -9.613915 0
M  V30 43 H 9.363260 4.390107 -14.628407 0
M  V30 44 H 8.163307 5.468754 -15.276449 0
M  V30 45 H 6.576678 -0.964427 -11.847927 0
M  V30 46 H 6.477327 0.790451 -11.758478 0
M  V30 47 H 5.255605 -0.121695 -12.637860 0
M  V30 48 H 7.953745 3.605423 -11.874246 0
M  V30 49 H 9.604955 4.043646 -12.205667 0
M  V30 50 H 10.573251 6.001358 -11.182300 0
M  V30 51 H 9.349612 7.178229 -10.901668 0
M  V30 52 H 6.906258 -0.810305 -14.329965 0
M  V30 53 H 8.211421 -0.002330 -13.482196 0
M  V30 54 H 12.953748 7.944770 -7.573998 0
M  V30 55 H 12.160303 6.460131 -7.156527 0
M  V30 56 H 7.728075 8.015202 -6.639879 0
M  V30 57 H 10.807147 9.183706 -7.201550 0
M  V30 58 H 10.459402 5.459552 -8.622729 0
M  V30 59 H 5.375562 1.176281 -16.844157 0
M  V30 60 H 6.240925 -0.337320 -16.697843 0
M  V30 61 H 8.638691 3.013630 -16.501707 0
M  V30 62 H 6.975183 3.312504 -16.945177 0
M  V30 63 H 8.713038 6.279958 -13.123730 0
M  V30 64 H 7.101126 5.637135 -12.979454 0
M  V30 65 H 13.478709 9.190319 -5.706028 0
M  V30 66 H 12.273206 10.457552 -5.819937 0
M  V30 67 H 12.803193 9.895704 -4.250776 0
M  V30 68 H 9.561052 6.602796 -6.152610 0
M  V30 69 H 10.580918 9.069164 -4.786577 0
M  V30 70 H 8.975358 8.053750 -8.736783 0
M  V30 71 H 8.279057 6.504128 -8.191828 0
M  V30 72 H 6.330271 3.897239 -14.770136 0
M  V30 END ATOM
M  V30 BEGIN BOND
M  V30 1 1 10 5
M  V30 2 1 11 5
M  V30 3 1 12 3
M  V30 4 1 12 9
M  V30 5 1 13 7
M  V30 6 1 16 13
M  V30 7 1 17 7
M  V30 8 1 17 11
M  V30 9 1 18 3
M  V30 10 1 19 2
M  V30 11 1 21 8
M  V30 12 1 21 10
M  V30 13 1 23 14
M  V30 14 1 23 16
M  V30 15 1 24 1
M  V30 16 1 24 4
M  V30 17 1 25 1
M  V30 18 1 25 16
M  V30 19 1 25 22
M  V30 20 1 26 17
M  V30 21 1 26 23
M  V30 22 1 27 8
M  V30 23 1 27 18
M  V30 24 1 27 20
M  V30 25 1 28 6
M  V30 26 1 28 7
M  V30 27 1 29 3
M  V30 28 1 29 15 CFG=1
M  V30 29 1 29 19
M  V30 30 1 29 20
M  V30 31 1 30 1
M  V30 32 1 31 1
M  V30 33 1 32 2
M  V30 34 1 3 33 CFG=3
M  V30 35 1 34 4
M  V30 36 1 35 4
M  V30 37 1 36 4
M  V30 38 1 37 5
M  V30 39 1 38 5
M  V30 40 1 39 6
M  V30 41 1 40 6
M  V30 42 1 41 6
M  V30 43 1 7 42 CFG=3
M  V30 44 1 43 8
M  V30 45 1 44 8
M  V30 46 1 45 9
M  V30 47 1 46 9
M  V30 48 1 47 9
M  V30 49 1 48 10
M  V30 50 1 49 10
M  V30 51 1 50 11
M  V30 52 1 51 11
M  V30 53 1 52 12
M  V30 54 1 53 12
M  V30 55 1 54 13
M  V30 56 1 55 13
M  V30 57 1 56 14
M  V30 58 1 16 57 CFG=3
M  V30 59 1 17 58 CFG=1
M  V30 60 1 59 19
M  V30 61 1 60 19
M  V30 62 1 61 20
M  V30 63 1 62 20
M  V30 64 1 63 21
M  V30 65 1 64 21
M  V30 66 1 65 22
M  V30 67 1 66 22
M  V30 68 1 67 22
M  V30 69 1 23 68 CFG=1
M  V30 70 1 25 69 CFG=1
M  V30 71 1 70 26
M  V30 72 1 71 26
M  V30 73 1 27 72 CFG=3
M  V30 END BOND
M  V30 END CTAB
M  END
>  <i_epik_Tot_Q>  (1) 
0

>  <i_epik_Tot_abs_Q>  (1) 
0

>  <i_i_glide_confnum>  (1) 
208

>  <i_i_glide_lignum>  (1) 
9

>  <i_i_glide_posenum>  (1) 
395

>  <i_i_glide_rotatable_bonds>  (1) 
14

>  <i_lp_mmshare_version>  (1) 
72125

>  <i_m_source_file_index>  (1) 
7

>  <i_f3d_flags>  (1) 
0

>  <num_sample>  (1) 
100

>  <b_lp_Chiralities_Consistent>  (1) 
1

>  <r_epik_Charging_Adjusted_Penalty>  (1) 
0

>  <r_epik_Ionization_Penalty>  (1) 
7.0602717257541721e-07

>  <r_epik_Ionization_Penalty_Charging>  (1) 
0

>  <r_epik_Ionization_Penalty_Neutral>  (1) 
7.0602717257541721e-07

>  <r_epik_State_Penalty>  (1) 
-0

>  <r_glide_ring_energy>  (1) 
0

>  <r_i_docking_score>  (1) 
-4.6543295666822502

>  <r_i_glide_ecoul>  (1) 
-2.9424978570428886

>  <r_i_glide_eff_state_penalty>  (1) 
-0

>  <r_i_glide_einternal>  (1) 
9.0514580711972066

>  <r_i_glide_emodel>  (1) 
-30.72176522827256

>  <r_i_glide_emodel_strain>  (1) 
0.96594381112734595

>  <r_i_glide_energy>  (1) 
-31.551420654574681

>  <r_i_glide_erotb>  (1) 
1.0157505286842679

>  <r_i_glide_esite>  (1) 
0

>  <r_i_glide_evdw>  (1) 
-28.608922797531793

>  <r_i_glide_gscore>  (1) 
-4.6543295666822502

>  <r_i_glide_gscore_strain>  (1) 
0

>  <r_i_glide_hbond>  (1) 
-0.16272069681812201

>  <r_i_glide_ligand_efficiency>  (1) 
-0.16049412298904311

>  <r_i_glide_ligand_efficiency_ln>  (1) 
-1.0657234471557802

>  <r_i_glide_ligand_efficiency_sa>  (1) 
-0.49308879448293097

>  <r_i_glide_lipo>  (1) 
-2.4429001721582071

>  <r_i_glide_metal>  (1) 
-0

>  <r_i_glide_rewards>  (1) 
-1.1926384079571664

>  <r_lp_Energy>  (1) 
8.972643999999999

>  <r_lp_tautomer_probability>  (1) 
1

>  <s_epik_cmdline>  (1) 
J2VwaWtfcHl0aG9uJywgJy1waHQnLCAnMS4wJywgJy1waCcsICc3LjQnLCAnLXRuJywgJzgnLCAnLW1hJywgJzUwMCcsICctaW1hZScsICc8aW5maWxlLm1hZT4nLCAnLW9tYWUnLCAnPG91dGZpbGUubWFlPic=

>  <s_epik_input>  (1) 
W0NIM11PW0NIMl1bQ0BASF0oW0NIM10pW0NAQEhdKFtDSDJdW0NAQEhdMU9bQ0gzXSlbQ0BASF0oW09IXSlbQ0gyXVtDQEhdMVtDSDJdW0NIMl1bQ0gyXVtDSDJdW0NIMl1bQ0BASF0oW0NIMl0yKU9bQ0BIXShbQ0gyXVtDSDNdKVtDQEBdMihGKVtDSDJdW09IXQ==

>  <s_glide_docking_method>  (1) 
confgen

>  <s_i_glide_gridfile>  (1) 
gpcr_drd2_6luq_protein_autoprepared_prepared

>  <s_lp_Force_Field>  (1) 
S-OPLS

>  <s_lp_Variant>  (1) 
DiffSBDD_6-1

>  <s_m_source_file>  (1) 
generated_generic_title2_ligand_DiffSBDD_2026-06-23_prepared.sdf

>  <GenAI_Model>  (1) 
DiffSBDD

>  <Protein>  (1) 
generic_title2

$$$$
DiffSBDD_89
     RDKit          3D

  0  0  0  0  0  0  0  0  0  0999 V3000
M  V30 BEGIN CTAB
M  V30 COUNTS 79 82 0 0 1
M  V30 BEGIN ATOM
M  V30 1 C 9.972794 7.052795 -7.549172 0
M  V30 2 O 4.816365 -0.442513 -17.277820 0
M  V30 3 C 6.192189 1.506545 -21.226410 0
M  V30 4 C 7.104131 -0.053145 -16.730368 0
M  V30 5 C 5.855295 0.168399 -17.523922 0
M  V30 6 C 5.940539 1.188729 -18.653258 0 CFG=2
M  V30 7 F 13.052329 8.046939 -8.384853 0
M  V30 8 C 7.762064 4.790247 -9.533574 0
M  V30 9 C 8.607368 2.881236 -13.185054 0
M  V30 10 C 10.322189 6.156790 -12.642092 0
M  V30 11 F 11.775497 9.590242 -9.185088 0
M  V30 12 F 11.777993 9.198021 -7.065289 0
M  V30 13 C 5.710826 -0.772964 -20.342159 0
M  V30 14 C 8.168379 3.716393 -16.591907 0 CFG=2
M  V30 15 C 9.609456 6.223809 -10.222209 0
M  V30 16 N 7.403077 2.504407 -17.048245 0
M  V30 17 C 6.109280 8.026842 -15.569438 0
M  V30 18 C 6.412637 0.567409 -20.021506 0
M  V30 19 O 10.145640 7.437298 -6.248709 0
M  V30 20 C 8.442738 4.880382 -11.865054 0
M  V30 21 C 9.434073 5.764457 -11.544623 0
M  V30 22 C 8.400052 4.409091 -13.306459 0 CFG=1
M  V30 23 C 10.605028 7.175155 -9.909149 0
M  V30 24 C 10.786402 7.597108 -8.579132 0
M  V30 25 C 7.575648 4.390320 -10.873088 0
M  V30 26 C 6.682686 2.502383 -18.227081 0
M  V30 27 O 6.602175 3.495294 -18.948148 0
M  V30 28 C 7.423297 4.904726 -15.837955 0 CFG=1
M  V30 29 C 9.176143 4.207842 -17.660965 0
M  V30 30 C 8.975411 6.111003 -7.867939 0
M  V30 31 C 11.861816 8.628516 -8.268354 0
M  V30 32 C 6.387176 5.699989 -16.703057 0 CFG=2
M  V30 33 F 7.000235 6.353032 -17.691966 0
M  V30 34 O 7.798950 0.274882 -19.981324 0
M  V30 35 C 7.523412 1.303950 -16.181089 0
M  V30 36 C 9.677908 5.249281 -13.768061 0
M  V30 37 C 7.169382 4.790762 -14.240106 0 CFG=1
M  V30 38 C 5.894475 4.026504 -13.841556 0
M  V30 39 C 5.459945 6.721746 -16.019442 0
M  V30 40 C 8.783608 5.706903 -9.204421 0
M  V30 41 H 5.148140 1.813958 -21.298168 0
M  V30 42 H 6.804485 2.405565 -21.179593 0
M  V30 43 H 6.445967 1.011463 -22.165164 0
M  V30 44 H 6.935594 -0.776034 -15.930813 0
M  V30 45 H 7.873455 -0.459792 -17.386367 0
M  V30 46 H 4.910017 1.505208 -18.810680 0
M  V30 47 H 7.123775 4.393899 -8.764426 0
M  V30 48 H 8.575358 2.355850 -14.116894 0
M  V30 49 H 9.553026 2.647497 -12.696248 0
M  V30 50 H 7.829082 2.401488 -12.595987 0
M  V30 51 H 10.234509 7.232318 -12.785012 0
M  V30 52 H 11.354566 5.904028 -12.402773 0
M  V30 53 H 4.625965 -0.665394 -20.324028 0
M  V30 54 H 5.982113 -1.142557 -21.331467 0
M  V30 55 H 5.973899 -1.561238 -19.636941 0
M  V30 56 H 8.882313 3.352350 -15.868027 0
M  V30 57 H 5.326948 8.676431 -15.185021 0
M  V30 58 H 6.857103 7.877314 -14.791463 0
M  V30 59 H 6.575351 8.564417 -16.385550 0
M  V30 60 H 10.777456 8.136888 -6.156436 0
M  V30 61 H 11.233943 7.578874 -10.687195 0
M  V30 62 H 6.801099 3.682900 -11.121198 0
M  V30 63 H 8.171847 5.675771 -15.912509 0
M  V30 64 H 9.915030 4.879051 -17.219868 0
M  V30 65 H 9.728386 3.372057 -18.092687 0
M  V30 66 H 8.707254 4.751472 -18.479270 0
M  V30 67 H 8.347759 5.708915 -7.087282 0
M  V30 68 H 5.775414 5.029563 -17.270810 0
M  V30 69 H 8.280161 1.087656 -20.021124 0
M  V30 70 H 8.565852 1.182553 -15.888389 0
M  V30 71 H 6.946473 1.478476 -15.275699 0
M  V30 72 H 10.365026 4.686973 -14.385159 0
M  V30 73 H 9.358057 5.990217 -14.456210 0
M  V30 74 H 6.960465 5.813922 -13.935379 0
M  V30 75 H 5.971273 2.952381 -13.985264 0
M  V30 76 H 5.639833 4.198063 -12.800297 0
M  V30 77 H 5.034442 4.388958 -14.384883 0
M  V30 78 H 4.656323 6.970318 -16.712571 0
M  V30 79 H 4.975404 6.289160 -15.156621 0
M  V30 END ATOM
M  V30 BEGIN BOND
M  V30 1 2 5 2
M  V30 2 1 5 4
M  V30 3 1 6 5
M  V30 4 1 16 14
M  V30 5 1 18 3
M  V30 6 1 18 6
M  V30 7 1 18 13
M  V30 8 1 19 1
M  V30 9 1 21 10
M  V30 10 1 21 15
M  V30 11 2 21 20
M  V30 12 1 22 9 CFG=1
M  V30 13 1 22 20
M  V30 14 2 23 15
M  V30 15 2 24 1
M  V30 16 1 24 23
M  V30 17 2 25 8
M  V30 18 1 25 20
M  V30 19 1 26 6
M  V30 20 1 26 16
M  V30 21 2 27 26
M  V30 22 1 28 14
M  V30 23 1 29 14
M  V30 24 1 30 1
M  V30 25 1 31 7
M  V30 26 1 31 11
M  V30 27 1 31 12
M  V30 28 1 31 24
M  V30 29 1 32 28
M  V30 30 1 33 32
M  V30 31 1 34 18
M  V30 32 1 35 4
M  V30 33 1 35 16
M  V30 34 1 36 10
M  V30 35 1 36 22
M  V30 36 1 37 22
M  V30 37 1 37 28
M  V30 38 1 38 37
M  V30 39 1 39 17
M  V30 40 1 39 32
M  V30 41 1 40 8
M  V30 42 1 40 15
M  V30 43 2 40 30
M  V30 44 1 41 3
M  V30 45 1 42 3
M  V30 46 1 43 3
M  V30 47 1 44 4
M  V30 48 1 45 4
M  V30 49 1 6 46 CFG=3
M  V30 50 1 47 8
M  V30 51 1 48 9
M  V30 52 1 49 9
M  V30 53 1 50 9
M  V30 54 1 51 10
M  V30 55 1 52 10
M  V30 56 1 53 13
M  V30 57 1 54 13
M  V30 58 1 55 13
M  V30 59 1 14 56 CFG=1
M  V30 60 1 57 17
M  V30 61 1 58 17
M  V30 62 1 59 17
M  V30 63 1 60 19
M  V30 64 1 61 23
M  V30 65 1 62 25
M  V30 66 1 28 63 CFG=1
M  V30 67 1 64 29
M  V30 68 1 65 29
M  V30 69 1 66 29
M  V30 70 1 67 30
M  V30 71 1 32 68 CFG=3
M  V30 72 1 69 34
M  V30 73 1 70 35
M  V30 74 1 71 35
M  V30 75 1 72 36
M  V30 76 1 73 36
M  V30 77 1 37 74 CFG=1
M  V30 78 1 75 38
M  V30 79 1 76 38
M  V30 80 1 77 38
M  V30 81 1 78 39
M  V30 82 1 79 39
M  V30 END BOND
M  V30 END CTAB
M  END
>  <i_epik_Tot_Q>  (1) 
0

>  <i_epik_Tot_abs_Q>  (1) 
0

>  <i_i_glide_confnum>  (1) 
298

>  <i_i_glide_lignum>  (1) 
165

>  <i_i_glide_posenum>  (1) 
340

>  <i_i_glide_rotatable_bonds>  (1) 
10

>  <i_lp_mmshare_version>  (1) 
72125

>  <i_m_source_file_index>  (1) 
90

>  <i_f3d_flags>  (1) 
0

>  <num_sample>  (1) 
100

>  <b_lp_Chiralities_Consistent>  (1) 
1

>  <r_epik_Charging_Adjusted_Penalty>  (1) 
0

>  <r_epik_Ionization_Penalty>  (1) 
0.063976020685543381

>  <r_epik_Ionization_Penalty_Charging>  (1) 
0

>  <r_epik_Ionization_Penalty_Neutral>  (1) 
0.063976020685543381

>  <r_epik_State_Penalty>  (1) 
-0

>  <r_glide_ring_energy>  (1) 
0

>  <r_i_docking_score>  (1) 
-4.6515032714856837

>  <r_i_glide_ecoul>  (1) 
-0.023883905170944963

>  <r_i_glide_eff_state_penalty>  (1) 
-0

>  <r_i_glide_einternal>  (1) 
6.2179758635257052

>  <r_i_glide_emodel>  (1) 
-25.615754450610282

>  <r_i_glide_emodel_strain>  (1) 
5.2388443025940319

>  <r_i_glide_energy>  (1) 
-28.556488697265305

>  <r_i_glide_erotb>  (1) 
0.30496708774431369

>  <r_i_glide_esite>  (1) 
-0.0083240145267149349

>  <r_i_glide_evdw>  (1) 
-28.532604792094361

>  <r_i_glide_gscore>  (1) 
-4.6515032714856837

>  <r_i_glide_gscore_strain>  (1) 
0.30971107564850797

>  <r_i_glide_hbond>  (1) 
0

>  <r_i_glide_ligand_efficiency>  (1) 
-0.11628758178714209

>  <r_i_glide_ligand_efficiency_ln>  (1) 
-0.99202876017734709

>  <r_i_glide_ligand_efficiency_sa>  (1) 
-0.39769793550642429

>  <r_i_glide_lipo>  (1) 
-2.0548088686559542

>  <r_i_glide_metal>  (1) 
-0

>  <r_i_glide_rewards>  (1) 
-1.7728357263154764

>  <r_lp_Energy>  (1) 
56.555591

>  <r_lp_tautomer_probability>  (1) 
1

>  <s_epik_cmdline>  (1) 
J2VwaWtfcHl0aG9uJywgJy1waHQnLCAnMS4wJywgJy1waCcsICc3LjQnLCAnLXRuJywgJzgnLCAnLW1hJywgJzUwMCcsICctaW1hZScsICc8aW5maWxlLm1hZT4nLCAnLW9tYWUnLCAnPG91dGZpbGUubWFlPic=

>  <s_epik_input>  (1) 
RkMoRikoRiljKFtjSF0xKWMoW09IXSlbY0hdYzJbY0hdW2NIXWMoYzNjMTIpW0NAXShbQ0gzXSkoW0NIMl1bQ0gyXTMpW0NASF0oW0NIM10pW0NASF0oW0NASF0oRilbQ0gyXVtDSDNdKVtDQEhdKFtDSDNdKU4oW0NIMl1bQ0gyXUM0PU8pQyg9TylbQ0BASF00QyhbQ0gzXSkoW0NIM10pW09IXQ==

>  <s_glide_docking_method>  (1) 
confgen

>  <s_i_glide_gridfile>  (1) 
gpcr_drd2_6luq_protein_autoprepared_prepared

>  <s_lp_Force_Field>  (1) 
S-OPLS

>  <s_lp_Variant>  (1) 
DiffSBDD_89-2

>  <s_m_source_file>  (1) 
generated_generic_title2_ligand_DiffSBDD_2026-06-23_prepared.sdf

>  <GenAI_Model>  (1) 
DiffSBDD

>  <Protein>  (1) 
generic_title2

$$$$
DiffSBDD_9
     RDKit          3D

  0  0  0  0  0  0  0  0  0  0999 V3000
M  V30 BEGIN CTAB
M  V30 COUNTS 65 70 0 0 1
M  V30 BEGIN ATOM
M  V30 1 C 17.029480 5.141647 -16.242199 0
M  V30 2 O 18.329830 7.898890 -18.291220 0
M  V30 3 C 15.650459 5.227959 -16.495963 0
M  V30 4 C 7.681077 5.801133 -11.575711 0 CFG=2
M  V30 5 C 9.362054 5.794830 -9.618876 0
M  V30 6 C 9.050343 5.197199 -18.265983 0
M  V30 7 C 13.353543 6.423322 -19.086979 0 CFG=2
M  V30 8 C 12.998042 7.862545 -19.361374 0
M  V30 9 C 10.079750 8.112185 -9.855984 0
M  V30 10 O 7.553710 5.797992 -15.549980 0
M  V30 11 C 17.919967 6.034991 -16.845785 0
M  V30 12 C 7.232992 6.473373 -12.876423 0
M  V30 13 C 10.338893 5.461812 -19.146292 0
M  V30 14 O 7.913128 5.187784 -18.736803 0
M  V30 15 C 9.004104 6.344036 -11.004541 0 CFG=2
M  V30 16 N 8.975411 7.798065 -10.785030 0 CHG=1
M  V30 17 N 11.300563 5.355275 -17.986177 0
M  V30 18 C 8.360321 4.663824 -15.831966 0
M  V30 19 C 10.326074 6.835821 -9.033015 0
M  V30 20 C 10.686804 5.068390 -16.800518 0
M  V30 21 C 16.058418 7.134264 -17.985525 0
M  V30 22 C 14.112349 8.791539 -18.803209 0
M  V30 23 O 6.257810 5.352930 -14.921235 0
M  V30 24 C 9.399796 4.974489 -16.899045 0
M  V30 25 C 6.771473 4.104361 -12.842693 0
M  V30 26 C 15.553665 8.239193 -18.949598 0
M  V30 27 C 12.734872 5.315955 -18.239694 0 CFG=2
M  V30 28 C 13.679627 6.307014 -17.622840 0 CFG=1
M  V30 29 C 6.316955 5.417602 -13.495938 0 CFG=1
M  V30 30 C 15.145836 6.216727 -17.366903 0
M  V30 31 O 7.859455 4.452505 -11.992831 0
M  V30 32 C 17.446152 7.029955 -17.712946 0
M  V30 33 H 17.407573 4.381309 -15.580531 0
M  V30 34 H 19.229230 7.747135 -18.040732 0
M  V30 35 H 14.974766 4.533615 -16.015524 0
M  V30 36 H 6.875652 5.851199 -10.837147 0
M  V30 37 H 8.466139 5.752046 -8.992380 0
M  V30 38 H 9.776817 4.786097 -9.655306 0
M  V30 39 H 14.084204 6.043818 -19.794989 0
M  V30 40 H 12.032495 8.097506 -18.915323 0
M  V30 41 H 12.877368 7.998376 -20.438331 0
M  V30 42 H 9.825933 8.961226 -9.219536 0
M  V30 43 H 10.977015 8.367950 -10.420010 0
M  V30 44 H 18.975011 5.956809 -16.640672 0
M  V30 45 H 8.114496 6.675014 -13.478457 0
M  V30 46 H 6.726876 7.424791 -12.715925 0
M  V30 47 H 10.333527 6.455931 -19.589052 0
M  V30 48 H 10.497161 4.693065 -19.905791 0
M  V30 49 H 9.819522 6.128682 -11.703514 0
M  V30 50 H 8.997849 8.334073 -11.639075 0
M  V30 51 H 7.744144 3.835583 -16.180476 0
M  V30 52 H 8.857045 4.349977 -14.914365 0
M  V30 53 H 10.144740 6.994641 -7.964901 0
M  V30 54 H 11.366835 6.522175 -9.126895 0
M  V30 55 H 11.306268 4.942352 -15.923883 0
M  V30 56 H 13.934157 9.029286 -17.752177 0
M  V30 57 H 14.037792 9.731959 -19.348079 0
M  V30 58 H 5.955041 3.681119 -12.250835 0
M  V30 59 H 7.089768 3.353912 -13.568176 0
M  V30 60 H 16.208015 9.098908 -18.832416 0
M  V30 61 H 15.715040 7.889964 -19.968854 0
M  V30 62 H 13.096095 4.300508 -18.375395 0
M  V30 63 H 13.225555 7.000720 -16.923972 0
M  V30 64 H 5.295095 5.615260 -13.165179 0
M  V30 65 H 8.104932 7.989955 -10.266061 0
M  V30 END ATOM
M  V30 BEGIN BOND
M  V30 1 1 3 1
M  V30 2 1 8 7
M  V30 3 2 11 1
M  V30 4 1 12 4
M  V30 5 1 13 6
M  V30 6 2 14 6
M  V30 7 1 15 4
M  V30 8 1 15 5
M  V30 9 1 16 9
M  V30 10 1 16 15
M  V30 11 1 17 13
M  V30 12 1 18 10
M  V30 13 1 19 5
M  V30 14 1 19 9
M  V30 15 1 20 17
M  V30 16 1 22 8
M  V30 17 1 23 10
M  V30 18 1 24 6
M  V30 19 1 24 18
M  V30 20 2 24 20
M  V30 21 1 26 21
M  V30 22 1 26 22
M  V30 23 1 27 7
M  V30 24 1 27 17
M  V30 25 1 28 7
M  V30 26 1 28 27
M  V30 27 1 29 12
M  V30 28 1 29 23
M  V30 29 1 29 25
M  V30 30 2 30 3
M  V30 31 1 30 21
M  V30 32 1 30 28
M  V30 33 1 31 4
M  V30 34 1 31 25
M  V30 35 1 32 2
M  V30 36 1 32 11
M  V30 37 2 32 21
M  V30 38 1 33 1
M  V30 39 1 34 2
M  V30 40 1 35 3
M  V30 41 1 4 36 CFG=1
M  V30 42 1 37 5
M  V30 43 1 38 5
M  V30 44 1 7 39 CFG=3
M  V30 45 1 40 8
M  V30 46 1 41 8
M  V30 47 1 42 9
M  V30 48 1 43 9
M  V30 49 1 44 11
M  V30 50 1 45 12
M  V30 51 1 46 12
M  V30 52 1 47 13
M  V30 53 1 48 13
M  V30 54 1 15 49 CFG=3
M  V30 55 1 50 16
M  V30 56 1 51 18
M  V30 57 1 52 18
M  V30 58 1 53 19
M  V30 59 1 54 19
M  V30 60 1 55 20
M  V30 61 1 56 22
M  V30 62 1 57 22
M  V30 63 1 58 25
M  V30 64 1 59 25
M  V30 65 1 60 26
M  V30 66 1 61 26
M  V30 67 1 27 62 CFG=3
M  V30 68 1 28 63 CFG=1
M  V30 69 1 29 64 CFG=1
M  V30 70 1 65 16
M  V30 END BOND
M  V30 END CTAB
M  END
>  <i_epik_Tot_Q>  (1) 
1

>  <i_epik_Tot_abs_Q>  (1) 
1

>  <i_i_glide_confnum>  (1) 
446

>  <i_i_glide_lignum>  (1) 
16

>  <i_i_glide_posenum>  (1) 
392

>  <i_i_glide_rotatable_bonds>  (1) 
7

>  <i_lp_mmshare_version>  (1) 
72125

>  <i_m_source_file_index>  (1) 
10

>  <i_f3d_flags>  (1) 
0

>  <num_sample>  (1) 
100

>  <b_lp_Chiralities_Consistent>  (1) 
1

>  <r_epik_Charging_Adjusted_Penalty>  (1) 
0.13693623870853466

>  <r_epik_Ionization_Penalty>  (1) 
0.069127027575875924

>  <r_epik_Ionization_Penalty_Charging>  (1) 
0.068788428358952047

>  <r_epik_Ionization_Penalty_Neutral>  (1) 
0.00033859921692387109

>  <r_epik_State_Penalty>  (1) 
0.06814781034958263

>  <r_glide_ring_energy>  (1) 
0.028054261374209404

>  <r_i_docking_score>  (1) 
-4.6480124195024732

>  <r_i_glide_ecoul>  (1) 
-7.9909927295654368

>  <r_i_glide_eff_state_penalty>  (1) 
0.06814781034958263

>  <r_i_glide_einternal>  (1) 
10.723380219468556

>  <r_i_glide_emodel>  (1) 
-40.752298258677307

>  <r_i_glide_emodel_strain>  (1) 
0.55554243499580025

>  <r_i_glide_energy>  (1) 
-39.144922916998404

>  <r_i_glide_erotb>  (1) 
0.61474503349198251

>  <r_i_glide_esite>  (1) 
-0.10000000000000001

>  <r_i_glide_evdw>  (1) 
-31.153930187432969

>  <r_i_glide_gscore>  (1) 
-4.716160229852056

>  <r_i_glide_gscore_strain>  (1) 
0

>  <r_i_glide_hbond>  (1) 
-0.15696613681256694

>  <r_i_glide_ligand_efficiency>  (1) 
-0.14525038810945229

>  <r_i_glide_ligand_efficiency_ln>  (1) 
-1.0408166807599326

>  <r_i_glide_ligand_efficiency_sa>  (1) 
-0.46114123776746768

>  <r_i_glide_lipo>  (1) 
-1.1832391191463842

>  <r_i_glide_metal>  (1) 
-0

>  <r_i_glide_rewards>  (1) 
-1.1343545885786237

>  <r_lp_Energy>  (1) 
34.162976

>  <r_lp_tautomer_probability>  (1) 
0.98846045845453334

>  <s_epik_Chemistry_Notes>  (1) 
This compound has an imine and may undergo hydrolysis.

>  <s_epik_cmdline>  (1) 
J2VwaWtfcHl0aG9uJywgJy1waHQnLCAnMS4wJywgJy1waCcsICc3LjQnLCAnLXRuJywgJzgnLCAnLW1hJywgJzUwMCcsICctaW1hZScsICc8aW5maWxlLm1hZT4nLCAnLW9tYWUnLCAnPG91dGZpbGUubWFlPic=

>  <s_epik_input>  (1) 
W2NIXTFbY0hdW2NIXWMoW09IXSljKFtDSDJdW0NIMl1bQ0gyXTIpYzFbQ0BASF0oW0NASF0yMylbQ0hdM24oW2NIXWM0W09IXSlbY0hdYzRbQ0gyXU9PW0NAQEhdKFtDSDJdTzUpW0NIMl1bQ0BASF01W0NAQEhdNltDSDJdW0NIMl1bQ0gyXVtOSF02

>  <s_glide_docking_method>  (1) 
confgen

>  <s_i_glide_gridfile>  (1) 
gpcr_drd2_6luq_protein_autoprepared_prepared

>  <s_lp_Force_Field>  (1) 
S-OPLS

>  <s_lp_Variant>  (1) 
DiffSBDD_9-1

>  <s_m_source_file>  (1) 
generated_generic_title2_ligand_DiffSBDD_2026-06-23_prepared.sdf

>  <GenAI_Model>  (1) 
DiffSBDD

>  <Protein>  (1) 
generic_title2

$$$$
DiffSBDD_43
     RDKit          3D

  0  0  0  0  0  0  0  0  0  0999 V3000
M  V30 BEGIN CTAB
M  V30 COUNTS 73 80 0 0 1
M  V30 BEGIN ATOM
M  V30 1 C 6.564960 6.079991 -17.415807 0 CFG=1
M  V30 2 C 5.368891 6.996602 -17.298227 0 CFG=2
M  V30 3 C 5.760957 5.993530 -15.061370 0 CFG=1
M  V30 4 C 8.215753 4.866958 -10.848590 0
M  V30 5 C 9.301709 5.620795 -18.826575 0
M  V30 6 C 9.358140 4.193437 -18.256658 0
M  V30 7 C 6.741877 5.348406 -16.064465 0
M  V30 8 S 13.465949 0.026942 -17.985337 0
M  V30 9 C 12.631679 2.747660 -17.796157 0 CFG=1
M  V30 10 C 13.676830 1.782697 -18.328865 0 CFG=1
M  V30 11 C 9.374432 5.033992 -13.229018 0
M  V30 12 C 14.083496 4.638813 -18.446062 0
M  V30 13 C 6.408559 6.503968 -13.762893 0
M  V30 14 C 12.692453 4.021569 -18.613463 0 CFG=2
M  V30 15 C 12.416103 0.728682 -20.465836 0
M  V30 16 C 7.955449 4.518453 -13.238627 0 CFG=1
M  V30 17 N 10.596881 3.789939 -17.730497 0
M  V30 18 C 8.837883 4.224591 -12.065449 0 CFG=2
M  V30 19 O 14.977740 2.347835 -18.164055 0
M  V30 20 C 8.274473 3.388908 -18.230629 0
M  V30 21 C 7.193620 5.878527 -11.392579 0
M  V30 22 C 6.519450 3.058666 -20.038609 0
M  V30 23 C 15.144879 3.590964 -18.861483 0
M  V30 24 C 11.143037 2.443872 -17.786169 0
M  V30 25 C 6.749375 5.347295 -18.786395 0 CFG=1
M  V30 26 C 7.964806 5.949384 -19.524971 0
M  V30 27 C 13.627743 0.907465 -19.572307 0 CFG=2
M  V30 28 C 5.016493 7.060074 -15.839767 0 CFG=2
M  V30 29 C 3.978538 6.631096 -16.845841 0
M  V30 30 F 6.540164 1.743669 -19.819916 0
M  V30 31 O 11.588366 4.759790 -18.118319 0
M  V30 32 F 5.283724 3.393547 -20.411259 0
M  V30 33 F 7.360537 3.333127 -21.034521 0
M  V30 34 C 6.787510 5.369186 -12.785856 0 CFG=1
M  V30 35 C 6.895081 3.797489 -18.733623 0 CFG=2
M  V30 36 H 7.375288 6.790185 -17.374634 0
M  V30 37 H 5.449070 7.933793 -17.846944 0
M  V30 38 H 5.018770 5.250208 -14.774085 0
M  V30 39 H 8.970868 5.333570 -10.215237 0
M  V30 40 H 7.702482 4.102751 -10.265748 0
M  V30 41 H 9.487550 6.318337 -18.010190 0
M  V30 42 H 10.087942 5.785291 -19.564223 0
M  V30 43 H 6.575696 4.277199 -16.096782 0
M  V30 44 H 7.775591 5.468634 -15.739007 0
M  V30 45 H 12.910765 2.975765 -16.765078 0
M  V30 46 H 9.531668 6.099344 -13.076535 0
M  V30 47 H 10.062417 4.561875 -13.923205 0
M  V30 48 H 14.177928 5.543547 -19.047226 0
M  V30 49 H 14.238530 4.930865 -17.406896 0
M  V30 50 H 7.273296 7.130592 -13.986362 0
M  V30 51 H 5.692294 7.151653 -13.255140 0
M  V30 52 H 12.505349 3.804751 -19.667206 0
M  V30 53 H 12.179955 1.665084 -20.971737 0
M  V30 54 H 12.627821 -0.026617 -21.222408 0
M  V30 55 H 11.544638 0.392094 -19.907346 0
M  V30 56 H 7.722304 3.696629 -13.912880 0
M  V30 57 H 9.232841 3.217429 -11.939467 0
M  V30 58 H 8.356253 2.396956 -17.811706 0
M  V30 59 H 7.672903 6.854694 -11.481207 0
M  V30 60 H 6.333675 5.990262 -10.730992 0
M  V30 61 H 15.087956 3.407808 -19.934913 0
M  V30 62 H 16.146184 3.973373 -18.663209 0
M  V30 63 H 10.838466 1.847446 -16.927482 0
M  V30 64 H 10.798680 1.961479 -18.697354 0
M  V30 65 H 5.862864 5.573745 -19.379932 0
M  V30 66 H 7.858383 7.030800 -19.623928 0
M  V30 67 H 7.997192 5.576570 -20.546928 0
M  V30 68 H 14.583862 0.667043 -20.034279 0
M  V30 69 H 4.927993 8.045586 -15.385771 0
M  V30 70 H 3.679423 5.590232 -16.785455 0
M  V30 71 H 3.177672 7.335892 -17.063053 0
M  V30 72 H 5.932934 4.703591 -12.655000 0
M  V30 73 H 6.179658 3.421925 -18.006702 0
M  V30 END ATOM
M  V30 BEGIN BOND
M  V30 1 1 2 1
M  V30 2 1 6 5
M  V30 3 1 7 1
M  V30 4 1 7 3
M  V30 5 1 10 8
M  V30 6 1 10 9
M  V30 7 1 13 3
M  V30 8 1 14 9
M  V30 9 1 14 12
M  V30 10 1 16 11
M  V30 11 1 17 6
M  V30 12 1 18 4
M  V30 13 1 18 11
M  V30 14 1 18 16
M  V30 15 1 10 19 CFG=1
M  V30 16 2 20 6
M  V30 17 1 21 4
M  V30 18 1 23 12
M  V30 19 1 23 19
M  V30 20 1 24 9
M  V30 21 1 24 17
M  V30 22 1 25 1
M  V30 23 1 26 5
M  V30 24 1 26 25
M  V30 25 1 27 8
M  V30 26 1 27 10
M  V30 27 1 27 15
M  V30 28 1 28 2
M  V30 29 1 28 3
M  V30 30 1 29 2
M  V30 31 1 29 28
M  V30 32 1 30 22
M  V30 33 1 31 14
M  V30 34 1 31 17
M  V30 35 1 32 22
M  V30 36 1 33 22
M  V30 37 1 34 13
M  V30 38 1 34 16
M  V30 39 1 34 21
M  V30 40 1 35 20
M  V30 41 1 35 22
M  V30 42 1 35 25
M  V30 43 1 1 36 CFG=1
M  V30 44 1 2 37 CFG=3
M  V30 45 1 3 38 CFG=1
M  V30 46 1 39 4
M  V30 47 1 40 4
M  V30 48 1 41 5
M  V30 49 1 42 5
M  V30 50 1 43 7
M  V30 51 1 44 7
M  V30 52 1 9 45 CFG=1
M  V30 53 1 46 11
M  V30 54 1 47 11
M  V30 55 1 48 12
M  V30 56 1 49 12
M  V30 57 1 50 13
M  V30 58 1 51 13
M  V30 59 1 14 52 CFG=3
M  V30 60 1 53 15
M  V30 61 1 54 15
M  V30 62 1 55 15
M  V30 63 1 16 56 CFG=3
M  V30 64 1 18 57 CFG=1
M  V30 65 1 58 20
M  V30 66 1 59 21
M  V30 67 1 60 21
M  V30 68 1 61 23
M  V30 69 1 62 23
M  V30 70 1 63 24
M  V30 71 1 64 24
M  V30 72 1 25 65 CFG=3
M  V30 73 1 66 26
M  V30 74 1 67 26
M  V30 75 1 27 68 CFG=3
M  V30 76 1 28 69 CFG=1
M  V30 77 1 70 29
M  V30 78 1 71 29
M  V30 79 1 34 72 CFG=1
M  V30 80 1 35 73 CFG=1
M  V30 END BOND
M  V30 END CTAB
M  END
>  <i_epik_Tot_Q>  (1) 
0

>  <i_epik_Tot_abs_Q>  (1) 
0

>  <i_i_glide_confnum>  (1) 
268

>  <i_i_glide_lignum>  (1) 
69

>  <i_i_glide_posenum>  (1) 
123

>  <i_i_glide_rotatable_bonds>  (1) 
5

>  <i_lp_mmshare_version>  (1) 
72125

>  <i_m_source_file_index>  (1) 
44

>  <i_f3d_flags>  (1) 
0

>  <num_sample>  (1) 
100

>  <b_lp_Chiralities_Consistent>  (1) 
1

>  <r_epik_Charging_Adjusted_Penalty>  (1) 
0

>  <r_epik_Ionization_Penalty>  (1) 
0.0012510015798316548

>  <r_epik_Ionization_Penalty_Charging>  (1) 
0

>  <r_epik_Ionization_Penalty_Neutral>  (1) 
0.0012510015798316548

>  <r_epik_State_Penalty>  (1) 
-0

>  <r_glide_ring_energy>  (1) 
2.4413042619657612

>  <r_i_docking_score>  (1) 
-4.6429115986129368

>  <r_i_glide_ecoul>  (1) 
-1.002027961101025

>  <r_i_glide_eff_state_penalty>  (1) 
-0

>  <r_i_glide_einternal>  (1) 
13.037833882162186

>  <r_i_glide_emodel>  (1) 
-26.306816503201119

>  <r_i_glide_emodel_strain>  (1) 
1.5097101405444988

>  <r_i_glide_energy>  (1) 
-27.518806188242579

>  <r_i_glide_erotb>  (1) 
0.31537474361301371

>  <r_i_glide_esite>  (1) 
0

>  <r_i_glide_evdw>  (1) 
-26.516778227141554

>  <r_i_glide_gscore>  (1) 
-4.6429115986129368

>  <r_i_glide_gscore_strain>  (1) 
0

>  <r_i_glide_hbond>  (1) 
0

>  <r_i_glide_ligand_efficiency>  (1) 
-0.13265461710322676

>  <r_i_glide_ligand_efficiency_ln>  (1) 
-1.0192221397666139

>  <r_i_glide_ligand_efficiency_sa>  (1) 
-0.43392204889733221

>  <r_i_glide_lipo>  (1) 
-2.43483026981996

>  <r_i_glide_metal>  (1) 
-0

>  <r_i_glide_rewards>  (1) 
-1.0473129668837586

>  <r_lp_Energy>  (1) 
38.603110000000001

>  <r_lp_tautomer_probability>  (1) 
1

>  <s_epik_Chemistry_Notes>  (1) 
This compound has a N-S or N-O group and may undergo hydrolysis at high or low pH.

>  <s_epik_cmdline>  (1) 
J2VwaWtfcHl0aG9uJywgJy1waHQnLCAnMS4wJywgJy1waCcsICc3LjQnLCAnLXRuJywgJzgnLCAnLW1hJywgJzUwMCcsICctaW1hZScsICc8aW5maWxlLm1hZT4nLCAnLW9tYWUnLCAnPG91dGZpbGUubWFlPic=

>  <s_epik_input>  (1) 
W0NIMl0xW0NASF0oW0NASF0xMilbQ0gyXVtDSDJdW0NASF0yW0NIMl1bQ0BASF0oW0NAQEhdKFtDQEBIXTM0KVtDSDJdNClbQ0gyXVtDQEhdM1tDQEBIXShbQ0gyXVtDSDJdNSlbQ0BASF0oQyhGKShGKUYpW0NIXT1DNU4oW0NIMl02KU9bQ0BASF0oW0NIMl1bQ0gyXU83KVtDQEBIXTZbQ0BAXTc4U1tDQEhdOFtDSDNd

>  <s_glide_docking_method>  (1) 
confgen

>  <s_i_glide_gridfile>  (1) 
gpcr_drd2_6luq_protein_autoprepared_prepared

>  <s_lp_Force_Field>  (1) 
S-OPLS

>  <s_lp_Variant>  (1) 
DiffSBDD_43-1

>  <s_m_source_file>  (1) 
generated_generic_title2_ligand_DiffSBDD_2026-06-23_prepared.sdf

>  <GenAI_Model>  (1) 
DiffSBDD

>  <Protein>  (1) 
generic_title2

$$$$
DiffSBDD_81
     RDKit          3D

  0  0  0  0  0  0  0  0  0  0999 V3000
M  V30 BEGIN CTAB
M  V30 COUNTS 68 71 0 0 1
M  V30 BEGIN ATOM
M  V30 1 C 8.138653 5.115169 -11.930415 0 CFG=1
M  V30 2 C 8.188411 1.054183 -17.625075 0
M  V30 3 O 5.848273 -1.656119 -20.352212 0
M  V30 4 C 6.959592 -1.528417 -19.485858 0
M  V30 5 C 9.753702 6.798996 -10.769289 0
M  V30 6 C 11.577017 7.439302 -9.452505 0
M  V30 7 C 10.965394 7.435167 -10.732759 0
M  V30 8 C 9.207288 3.982898 -11.844007 0
M  V30 9 O 5.596152 -0.872820 -15.985182 0
M  V30 10 O 7.781471 7.541903 -11.985036 0
M  V30 11 C 7.880630 5.284709 -14.607217 0 CFG=2
M  V30 12 C 12.945143 8.790102 -8.049615 0
M  V30 13 C 8.169921 5.344205 -8.660864 0 CFG=1
M  V30 14 C 7.295715 4.873764 -13.222027 0
M  V30 15 C 9.565600 6.132979 -8.658360 0
M  V30 16 O 4.575414 -2.045134 -17.719572 0
M  V30 17 N 7.180143 5.032654 -10.800440 0
M  V30 18 C 9.028884 -1.271162 -17.510916 0
M  V30 19 C 9.375239 6.273412 -9.570000 0
M  V30 20 C 6.625101 -0.825517 -18.138771 0 CFG=1
M  V30 21 O 7.812329 4.390238 -9.656051 0
M  V30 22 C 8.784308 6.546471 -11.908262 0 CFG=2
M  V30 23 C 7.279066 4.473994 -15.778309 0
M  V30 24 C 10.842379 6.780608 -8.361516 0
M  V30 25 C 7.362369 1.939360 -16.706672 0 CFG=2
M  V30 26 C 7.991809 3.145531 -16.038873 0 CFG=2
M  V30 27 O 9.287288 5.190160 -14.706020 0
M  V30 28 O 13.261761 8.790232 -10.337637 0
M  V30 29 C 7.657947 1.923142 -15.223175 0
M  V30 30 C 5.794804 -1.669834 -17.139439 0
M  V30 31 N 12.840639 8.002599 -9.258761 0
M  V30 32 N 7.851041 -0.372552 -17.419217 0 CFG=2 CHG=1
M  V30 33 H 8.044183 1.344496 -18.666958 0
M  V30 34 H 9.244851 1.216522 -17.402863 0
M  V30 35 H 5.459050 -0.809159 -20.518551 0
M  V30 36 H 7.709294 -0.956603 -20.033040 0
M  V30 37 H 7.374721 -2.522236 -19.316470 0
M  V30 38 H 11.414780 7.872225 -11.585286 0
M  V30 39 H 9.952530 4.065128 -12.630319 0
M  V30 40 H 9.775335 3.986362 -10.916080 0
M  V30 41 H 8.757360 2.996119 -11.947223 0
M  V30 42 H 5.232408 -1.410597 -15.291441 0
M  V30 43 H 7.383433 7.590034 -11.108998 0
M  V30 44 H 7.634909 6.337370 -14.752035 0
M  V30 45 H 12.769930 8.164524 -7.184998 0
M  V30 46 H 13.951039 9.190324 -7.948326 0
M  V30 47 H 12.191849 9.584220 -8.041649 0
M  V30 48 H 7.375347 5.990189 -8.385033 0
M  V30 49 H 7.024404 3.820328 -13.245912 0
M  V30 50 H 6.338491 5.389859 -13.128171 0
M  V30 51 H 4.234637 -2.794118 -17.250259 0
M  V30 52 H 6.411822 4.422592 -11.034948 0
M  V30 53 H 9.492479 -1.213943 -18.496519 0
M  V30 54 H 9.785753 -0.984869 -16.782835 0
M  V30 55 H 8.756570 -2.307450 -17.305067 0
M  V30 56 H 6.028978 0.058797 -18.374468 0
M  V30 57 H 9.399626 6.687515 -12.789560 0
M  V30 58 H 6.220350 4.311683 -15.584821 0
M  V30 59 H 7.337277 5.064257 -16.692884 0
M  V30 60 H 11.251695 6.738293 -7.364763 0
M  V30 61 H 6.305536 1.990717 -16.964120 0
M  V30 62 H 9.039514 3.277283 -16.301284 0
M  V30 63 H 9.567252 5.543628 -15.536540 0
M  V30 64 H 13.744589 9.538337 -9.984994 0
M  V30 65 H 8.489287 1.316075 -14.869170 0
M  V30 66 H 6.796932 1.959816 -14.560379 0
M  V30 67 H 6.330802 -2.579810 -16.867062 0
M  V30 68 H 7.549710 -0.420569 -16.451167 0
M  V30 END ATOM
M  V30 BEGIN BOND
M  V30 1 1 4 3
M  V30 2 2 7 5
M  V30 3 1 7 6
M  V30 4 1 1 8 CFG=1
M  V30 5 1 14 1
M  V30 6 1 14 11
M  V30 7 1 15 13
M  V30 8 1 17 1
M  V30 9 1 19 5
M  V30 10 1 19 13
M  V30 11 2 19 15
M  V30 12 1 20 4
M  V30 13 1 21 13
M  V30 14 1 21 17
M  V30 15 1 22 1
M  V30 16 1 22 5
M  V30 17 1 22 10
M  V30 18 1 23 11
M  V30 19 2 24 6
M  V30 20 1 24 15
M  V30 21 1 25 2
M  V30 22 1 26 23
M  V30 23 1 26 25
M  V30 24 1 27 11
M  V30 25 1 29 25
M  V30 26 1 29 26
M  V30 27 1 30 9
M  V30 28 1 30 16
M  V30 29 1 30 20
M  V30 30 1 31 6
M  V30 31 1 31 12
M  V30 32 1 31 28
M  V30 33 1 32 2
M  V30 34 1 32 18
M  V30 35 1 32 20
M  V30 36 1 33 2
M  V30 37 1 34 2
M  V30 38 1 35 3
M  V30 39 1 36 4
M  V30 40 1 37 4
M  V30 41 1 38 7
M  V30 42 1 39 8
M  V30 43 1 40 8
M  V30 44 1 41 8
M  V30 45 1 42 9
M  V30 46 1 43 10
M  V30 47 1 11 44 CFG=3
M  V30 48 1 45 12
M  V30 49 1 46 12
M  V30 50 1 47 12
M  V30 51 1 13 48 CFG=1
M  V30 52 1 49 14
M  V30 53 1 50 14
M  V30 54 1 51 16
M  V30 55 1 52 17
M  V30 56 1 53 18
M  V30 57 1 54 18
M  V30 58 1 55 18
M  V30 59 1 20 56 CFG=3
M  V30 60 1 22 57 CFG=3
M  V30 61 1 58 23
M  V30 62 1 59 23
M  V30 63 1 60 24
M  V30 64 1 25 61 CFG=1
M  V30 65 1 26 62 CFG=3
M  V30 66 1 63 27
M  V30 67 1 64 28
M  V30 68 1 65 29
M  V30 69 1 66 29
M  V30 70 1 67 30
M  V30 71 1 32 68 CFG=1
M  V30 END BOND
M  V30 END CTAB
M  END
>  <i_epik_Tot_Q>  (1) 
1

>  <i_epik_Tot_abs_Q>  (1) 
1

>  <i_i_glide_confnum>  (1) 
4116

>  <i_i_glide_lignum>  (1) 
143

>  <i_i_glide_posenum>  (1) 
220

>  <i_i_glide_rotatable_bonds>  (1) 
16

>  <i_lp_mmshare_version>  (1) 
72125

>  <i_m_source_file_index>  (1) 
82

>  <i_f3d_flags>  (1) 
0

>  <num_sample>  (1) 
100

>  <b_lp_Chiralities_Consistent>  (1) 
1

>  <r_epik_Charging_Adjusted_Penalty>  (1) 
0.61642058797261945

>  <r_epik_Ionization_Penalty>  (1) 
0.30960007796245242

>  <r_epik_Ionization_Penalty_Charging>  (1) 
0.30821029398630978

>  <r_epik_Ionization_Penalty_Neutral>  (1) 
0.0013897839761426282

>  <r_epik_State_Penalty>  (1) 
0.30821029398630967

>  <r_glide_ring_energy>  (1) 
0

>  <r_i_docking_score>  (1) 
-4.637759984865264

>  <r_i_glide_ecoul>  (1) 
-13.846094740302576

>  <r_i_glide_eff_state_penalty>  (1) 
0.30821029398630967

>  <r_i_glide_einternal>  (1) 
23.878440001426657

>  <r_i_glide_emodel>  (1) 
-27.116463818527045

>  <r_i_glide_emodel_strain>  (1) 
4.4319886893085823

>  <r_i_glide_energy>  (1) 
-33.622795504543404

>  <r_i_glide_erotb>  (1) 
0.97195684176611152

>  <r_i_glide_esite>  (1) 
-0.11935806017254998

>  <r_i_glide_evdw>  (1) 
-19.776700764240829

>  <r_i_glide_gscore>  (1) 
-4.9459702788515738

>  <r_i_glide_gscore_strain>  (1) 
0.10799717232714556

>  <r_i_glide_hbond>  (1) 
-0.53887224283998081

>  <r_i_glide_ligand_efficiency>  (1) 
-0.1449299995270395

>  <r_i_glide_ligand_efficiency_ln>  (1) 
-1.0385208811738484

>  <r_i_glide_ligand_efficiency_sa>  (1) 
-0.46012406742194639

>  <r_i_glide_lipo>  (1) 
-1.3474736643978273

>  <r_i_glide_metal>  (1) 
-0

>  <r_i_glide_rewards>  (1) 
-0.95447107627704386

>  <r_lp_Energy>  (1) 
79.058359999999993

>  <s_epik_Chemistry_Notes>  (1) 
This compound contains an acetal/aminal-like group ( X-CH(R)-Y where X, Y are N, S, or O) that may be acid/base labile, releasing an aldehyde. This compound has a N-S or N-O group and may undergo hydrolysis at high or low pH.

>  <s_epik_cmdline>  (1) 
J2VwaWtfcHl0aG9uJywgJy1waHQnLCAnMS4wJywgJy1waCcsICc3LjQnLCAnLXRuJywgJzgnLCAnLW1hJywgJzUwMCcsICctaW1hZScsICc8aW5maWxlLm1hZT4nLCAnLW9tYWUnLCAnPG91dGZpbGUubWFlPic=

>  <s_epik_input>  (1) 
W0NIM11OKFtPSF0pYyhbY0hdMSlbY0hdYyhjMmMxMylbQ0BASF0yT1tOSF1bQ0BdKFtDSDNdKShbQ0BIXTNbT0hdKVtDSDJdW0NAQEhdKFtPSF0pW0NIMl1bQ0BASF0oW0NIMl00KVtDQEhdNFtDSDJdTihbQ0gzXSlbQ0BASF0oW0NIMl1bT0hdKVtDSF0oW09IXSlbT0hd

>  <s_glide_docking_method>  (1) 
confgen

>  <s_i_glide_gridfile>  (1) 
gpcr_drd2_6luq_protein_autoprepared_prepared

>  <s_lp_Force_Field>  (1) 
S-OPLS

>  <s_lp_Variant>  (1) 
DiffSBDD_81-1

>  <s_m_source_file>  (1) 
generated_generic_title2_ligand_DiffSBDD_2026-06-23_prepared.sdf

>  <GenAI_Model>  (1) 
DiffSBDD

>  <Protein>  (1) 
generic_title2

$$$$
DiffSBDD_18
     RDKit          3D

  0  0  0  0  0  0  0  0  0  0999 V3000
M  V30 BEGIN CTAB
M  V30 COUNTS 38 39 0 0 1
M  V30 BEGIN ATOM
M  V30 1 C 11.347753 6.848316 -4.392558 0
M  V30 2 C 11.775339 6.555500 -3.084568 0
M  V30 3 O 11.372297 9.576338 -6.814861 0
M  V30 4 S 10.894553 7.990253 -9.585150 0
M  V30 5 C 6.995972 7.088999 -14.752851 0
M  V30 6 C 10.194283 7.078240 -11.015162 0
M  V30 7 N 8.860860 6.764943 -10.864197 0
M  V30 8 C 6.239295 6.277673 -13.698157 0
M  V30 9 C 11.071929 8.497195 -6.310098 0
M  V30 10 C 6.813802 5.416402 -11.262101 0 CFG=1
M  V30 11 C 12.154612 9.137876 -4.126933 0
M  V30 12 C 8.101059 6.010555 -11.808538 0 CFG=1
M  V30 13 N 10.312241 7.563085 -6.920175 0
M  V30 14 C 11.531028 8.151512 -4.918278 0
M  V30 15 C 12.575076 8.833625 -2.822803 0
M  V30 16 C 12.387848 7.546229 -2.303737 0
M  V30 17 O 10.894455 6.790328 -11.985038 0
M  V30 18 C 9.677601 7.760789 -8.232014 0
M  V30 19 C 6.751140 6.525423 -12.285351 0 CFG=1
M  V30 20 O 6.577657 4.104800 -11.733144 0
M  V30 21 H 10.876387 6.078236 -4.984025 0
M  V30 22 H 11.631066 5.573579 -2.679081 0
M  V30 23 H 6.567228 6.940937 -15.744378 0
M  V30 24 H 6.975637 8.155391 -14.538280 0
M  V30 25 H 8.039420 6.778979 -14.793916 0
M  V30 26 H 8.395345 7.103303 -10.022759 0
M  V30 27 H 6.307101 5.221950 -13.957194 0
M  V30 28 H 5.181353 6.534421 -13.723942 0
M  V30 29 H 6.511506 5.590662 -10.230367 0
M  V30 30 H 12.301070 10.131631 -4.520445 0
M  V30 31 H 8.665673 5.403032 -12.515621 0
M  V30 32 H 10.114014 6.703016 -6.432290 0
M  V30 33 H 13.037360 9.590177 -2.219685 0
M  V30 34 H 12.714582 7.317730 -1.301862 0
M  V30 35 H 8.979794 8.601132 -8.201775 0
M  V30 36 H 9.080756 6.863383 -8.386652 0
M  V30 37 H 6.468238 7.504974 -11.902605 0
M  V30 38 H 7.012500 4.000133 -12.565108 0
M  V30 END ATOM
M  V30 BEGIN BOND
M  V30 1 1 2 1
M  V30 2 1 6 4
M  V30 3 1 7 6
M  V30 4 1 8 5
M  V30 5 2 9 3
M  V30 6 1 12 7
M  V30 7 1 12 10
M  V30 8 1 13 9
M  V30 9 2 14 1
M  V30 10 1 14 9
M  V30 11 1 14 11
M  V30 12 2 15 11
M  V30 13 2 16 2
M  V30 14 1 16 15
M  V30 15 2 17 6
M  V30 16 1 18 4
M  V30 17 1 18 13
M  V30 18 1 19 8
M  V30 19 1 19 10
M  V30 20 1 19 12
M  V30 21 1 20 10
M  V30 22 1 21 1
M  V30 23 1 22 2
M  V30 24 1 23 5
M  V30 25 1 24 5
M  V30 26 1 25 5
M  V30 27 1 26 7
M  V30 28 1 27 8
M  V30 29 1 28 8
M  V30 30 1 10 29 CFG=1
M  V30 31 1 30 11
M  V30 32 1 12 31 CFG=3
M  V30 33 1 32 13
M  V30 34 1 33 15
M  V30 35 1 34 16
M  V30 36 1 35 18
M  V30 37 1 36 18
M  V30 38 1 19 37 CFG=1
M  V30 39 1 38 20
M  V30 END BOND
M  V30 END CTAB
M  END
>  <i_epik_Tot_Q>  (1) 
0

>  <i_epik_Tot_abs_Q>  (1) 
0

>  <i_i_glide_confnum>  (1) 
26

>  <i_i_glide_lignum>  (1) 
34

>  <i_i_glide_posenum>  (1) 
184

>  <i_i_glide_rotatable_bonds>  (1) 
9

>  <i_lp_mmshare_version>  (1) 
72125

>  <i_m_source_file_index>  (1) 
19

>  <i_f3d_flags>  (1) 
0

>  <num_sample>  (1) 
100

>  <b_lp_Chiralities_Consistent>  (1) 
1

>  <r_epik_Charging_Adjusted_Penalty>  (1) 
0

>  <r_epik_Ionization_Penalty>  (1) 
2.0525633642560989e-05

>  <r_epik_Ionization_Penalty_Charging>  (1) 
0

>  <r_epik_Ionization_Penalty_Neutral>  (1) 
2.0525633642560989e-05

>  <r_epik_State_Penalty>  (1) 
-0

>  <r_glide_ring_energy>  (1) 
0

>  <r_i_docking_score>  (1) 
-4.6368215195008107

>  <r_i_glide_ecoul>  (1) 
-8.2600960988417675

>  <r_i_glide_eff_state_penalty>  (1) 
-0

>  <r_i_glide_einternal>  (1) 
6.6494863433810973

>  <r_i_glide_emodel>  (1) 
-48.711068581507369

>  <r_i_glide_emodel_strain>  (1) 
0.9960750871473536

>  <r_i_glide_energy>  (1) 
-40.262565343269458

>  <r_i_glide_erotb>  (1) 
2.5324251451788915

>  <r_i_glide_esite>  (1) 
-0.1371167563312454

>  <r_i_glide_evdw>  (1) 
-32.002469244427687

>  <r_i_glide_gscore>  (1) 
-4.6368215195008107

>  <r_i_glide_gscore_strain>  (1) 
0

>  <r_i_glide_hbond>  (1) 
0

>  <r_i_glide_ligand_efficiency>  (1) 
-0.23184107597504053

>  <r_i_glide_ligand_efficiency_ln>  (1) 
-1.1604434937220169

>  <r_i_glide_ligand_efficiency_sa>  (1) 
-0.62931350087696825

>  <r_i_glide_lipo>  (1) 
-2.1086163162481948

>  <r_i_glide_metal>  (1) 
-0

>  <r_i_glide_rewards>  (1) 
-2.0843757150526128

>  <r_lp_Energy>  (1) 
17.543890999999999

>  <r_lp_tautomer_probability>  (1) 
1

>  <s_epik_Chemistry_Notes>  (1) 
This compound contains an acetal/aminal-like group ( X-CH(R)-Y where X, Y are N, S, or O) that may be acid/base labile, releasing an aldehyde.

>  <s_epik_cmdline>  (1) 
J2VwaWtfcHl0aG9uJywgJy1waHQnLCAnMS4wJywgJy1waCcsICc3LjQnLCAnLXRuJywgJzgnLCAnLW1hJywgJzUwMCcsICctaW1hZScsICc8aW5maWxlLm1hZT4nLCAnLW9tYWUnLCAnPG91dGZpbGUubWFlPic=

>  <s_epik_input>  (1) 
W2NIXTFbY0hdW2NIXVtjSF1bY0hdYzFDKD1PKVtOSF1bQ0gyXVNDKD1PKVtOSF1bQ0BASF0oW0NIXTJbT0hdKVtDQEhdMltDSDJdW0NIM10=

>  <s_glide_docking_method>  (1) 
confgen

>  <s_i_glide_gridfile>  (1) 
gpcr_drd2_6luq_protein_autoprepared_prepared

>  <s_lp_Force_Field>  (1) 
S-OPLS

>  <s_lp_Variant>  (1) 
DiffSBDD_18-1

>  <s_m_source_file>  (1) 
generated_generic_title2_ligand_DiffSBDD_2026-06-23_prepared.sdf

>  <GenAI_Model>  (1) 
DiffSBDD

>  <Protein>  (1) 
generic_title2

$$$$
DiffSBDD_11
     RDKit          3D

  0  0  0  0  0  0  0  0  0  0999 V3000
M  V30 BEGIN CTAB
M  V30 COUNTS 43 43 0 0 1
M  V30 BEGIN ATOM
M  V30 1 C 6.234216 6.300232 -12.075496 0 CFG=1
M  V30 2 C 9.983710 8.074548 -6.287172 0
M  V30 3 C 7.541726 7.093233 -12.300557 0
M  V30 4 C 10.430091 7.317947 -10.128305 0
M  V30 5 C 11.867248 9.130105 -3.850876 0
M  V30 6 C 10.831643 7.357075 -8.632140 0 CFG=1
M  V30 7 C 12.103957 8.965251 -7.185026 0
M  V30 8 C 9.441843 6.181615 -10.433188 0
M  V30 9 C 12.039694 8.247603 -8.315031 0
M  V30 10 C 5.922530 5.326405 -13.222827 0
M  V30 11 N 6.257574 5.590227 -10.785024 0 CHG=1
M  V30 12 N 11.128582 8.974634 -6.212815 0
M  V30 13 C 11.211685 9.836597 -5.042762 0
M  V30 14 C 13.156948 8.268718 -9.338877 0
M  V30 15 C 9.619061 7.770305 -7.750200 0
M  V30 16 S 9.037191 6.059348 -12.199857 0
M  V30 17 H 5.418248 7.022614 -12.020420 0
M  V30 18 H 9.113614 8.497035 -5.791401 0
M  V30 19 H 10.233458 7.150041 -5.765200 0
M  V30 20 H 7.630328 7.911804 -11.585011 0
M  V30 21 H 7.518242 7.558575 -13.286620 0
M  V30 22 H 9.999788 8.276046 -10.422291 0
M  V30 23 H 11.300869 7.174493 -10.765265 0
M  V30 24 H 11.830690 9.753767 -2.957260 0
M  V30 25 H 11.375434 8.185432 -3.624809 0
M  V30 26 H 12.914827 8.910777 -4.058490 0
M  V30 27 H 11.137536 6.353412 -8.337860 0
M  V30 28 H 12.950274 9.590226 -6.955056 0
M  V30 29 H 9.845488 5.221790 -10.115960 0
M  V30 30 H 8.538577 6.320196 -9.853360 0
M  V30 31 H 5.847387 5.855417 -14.173584 0
M  V30 32 H 6.697378 4.566455 -13.329965 0
M  V30 33 H 4.975416 4.810640 -13.062121 0
M  V30 34 H 6.975436 4.881375 -10.799234 0
M  V30 35 H 6.496009 6.283953 -10.072246 0
M  V30 36 H 11.775395 10.734701 -5.296295 0
M  V30 37 H 10.214916 10.190603 -4.784682 0
M  V30 38 H 13.464309 7.257028 -9.585025 0
M  V30 39 H 12.847789 8.783797 -10.248606 0
M  V30 40 H 14.029950 8.790221 -8.946495 0
M  V30 41 H 9.156950 8.662828 -8.175193 0
M  V30 42 H 8.849429 6.999266 -7.759405 0
M  V30 43 H 5.362262 5.180428 -10.565152 0
M  V30 END ATOM
M  V30 BEGIN BOND
M  V30 1 1 3 1
M  V30 2 1 6 4
M  V30 3 1 8 4
M  V30 4 1 9 6
M  V30 5 2 9 7
M  V30 6 1 10 1
M  V30 7 1 11 1
M  V30 8 1 12 2
M  V30 9 1 12 7
M  V30 10 1 13 5
M  V30 11 1 13 12
M  V30 12 1 14 9
M  V30 13 1 15 2
M  V30 14 1 15 6
M  V30 15 1 16 3
M  V30 16 1 16 8
M  V30 17 1 1 17 CFG=1
M  V30 18 1 18 2
M  V30 19 1 19 2
M  V30 20 1 20 3
M  V30 21 1 21 3
M  V30 22 1 22 4
M  V30 23 1 23 4
M  V30 24 1 24 5
M  V30 25 1 25 5
M  V30 26 1 26 5
M  V30 27 1 6 27 CFG=1
M  V30 28 1 28 7
M  V30 29 1 29 8
M  V30 30 1 30 8
M  V30 31 1 31 10
M  V30 32 1 32 10
M  V30 33 1 33 10
M  V30 34 1 34 11
M  V30 35 1 35 11
M  V30 36 1 36 13
M  V30 37 1 37 13
M  V30 38 1 38 14
M  V30 39 1 39 14
M  V30 40 1 40 14
M  V30 41 1 41 15
M  V30 42 1 42 15
M  V30 43 1 43 11
M  V30 END BOND
M  V30 END CTAB
M  END
>  <i_epik_Tot_Q>  (1) 
1

>  <i_epik_Tot_abs_Q>  (1) 
1

>  <i_i_glide_confnum>  (1) 
74

>  <i_i_glide_lignum>  (1) 
23

>  <i_i_glide_posenum>  (1) 
331

>  <i_i_glide_rotatable_bonds>  (1) 
6

>  <i_lp_mmshare_version>  (1) 
72125

>  <i_m_source_file_index>  (1) 
12

>  <i_f3d_flags>  (1) 
0

>  <num_sample>  (1) 
100

>  <b_lp_Chiralities_Consistent>  (1) 
1

>  <r_epik_Charging_Adjusted_Penalty>  (1) 
1.9642440234168317

>  <r_epik_Ionization_Penalty>  (1) 
0.98935146828666498

>  <r_epik_Ionization_Penalty_Charging>  (1) 
0.98585147642448279

>  <r_epik_Ionization_Penalty_Neutral>  (1) 
0.0034999918621821963

>  <r_epik_State_Penalty>  (1) 
0.9783925469923489

>  <r_glide_ring_energy>  (1) 
0

>  <r_i_docking_score>  (1) 
-4.6365057199741022

>  <r_i_glide_ecoul>  (1) 
-6.2127553232905237

>  <r_i_glide_eff_state_penalty>  (1) 
0.9783925469923489

>  <r_i_glide_einternal>  (1) 
2.4175300033521268

>  <r_i_glide_emodel>  (1) 
-45.597782034520321

>  <r_i_glide_emodel_strain>  (1) 
0.070384170042123273

>  <r_i_glide_energy>  (1) 
-32.586245425641849

>  <r_i_glide_erotb>  (1) 
1.1721704271113136

>  <r_i_glide_esite>  (1) 
-0.098125016713956431

>  <r_i_glide_evdw>  (1) 
-26.373490102351326

>  <r_i_glide_gscore>  (1) 
-5.6148982669664509

>  <r_i_glide_gscore_strain>  (1) 
0

>  <r_i_glide_hbond>  (1) 
-0.20000000000000001

>  <r_i_glide_ligand_efficiency>  (1) 
-0.28978160749838139

>  <r_i_glide_ligand_efficiency_ln>  (1) 
-1.2289984573832407

>  <r_i_glide_ligand_efficiency_sa>  (1) 
-0.73020389431916954

>  <r_i_glide_lipo>  (1) 
-1.42226332691226

>  <r_i_glide_metal>  (1) 
-0

>  <r_i_glide_rewards>  (1) 
-2.8160925468404034

>  <r_lp_Energy>  (1) 
12.336442

>  <s_epik_Chemistry_Notes>  (1) 
This compound has an imine and may undergo hydrolysis.

>  <s_epik_cmdline>  (1) 
J2VwaWtfcHl0aG9uJywgJy1waHQnLCAnMS4wJywgJy1waCcsICc3LjQnLCAnLXRuJywgJzgnLCAnLW1hJywgJzUwMCcsICctaW1hZScsICc8aW5maWxlLm1hZT4nLCAnLW9tYWUnLCAnPG91dGZpbGUubWFlPic=

>  <s_epik_input>  (1) 
W0NIM11bQ0BASF0oW05IMl0pW0NIMl1TW0NIMl1bQ0gyXVtDQEhdMUMoW0NIM10pPVtDSF1OKFtDSDJdW0NIMl0xKVtDSDJdW0NIM10=

>  <s_glide_docking_method>  (1) 
confgen

>  <s_i_glide_gridfile>  (1) 
gpcr_drd2_6luq_protein_autoprepared_prepared

>  <s_lp_Force_Field>  (1) 
S-OPLS

>  <s_lp_Variant>  (1) 
DiffSBDD_11-3

>  <s_m_source_file>  (1) 
generated_generic_title2_ligand_DiffSBDD_2026-06-23_prepared.sdf

>  <GenAI_Model>  (1) 
DiffSBDD

>  <Protein>  (1) 
generic_title2

$$$$
DiffSBDD_43
     RDKit          3D

  0  0  0  0  0  0  0  0  0  0999 V3000
M  V30 BEGIN CTAB
M  V30 COUNTS 73 80 0 0 1
M  V30 BEGIN ATOM
M  V30 1 C 8.853718 5.118049 -11.943470 0 CFG=1
M  V30 2 C 10.163940 5.834906 -12.111924 0 CFG=2
M  V30 3 C 9.269981 6.695022 -10.041873 0 CFG=1
M  V30 4 C 10.628081 8.645836 -6.188591 0
M  V30 5 C 8.444909 4.584199 -15.902254 0
M  V30 6 C 7.666733 3.285666 -15.853758 0
M  V30 7 C 8.149330 5.989307 -10.872489 0
M  V30 8 S 8.748560 -0.543511 -20.847349 0
M  V30 9 C 7.989789 1.225042 -18.800386 0 CFG=1
M  V30 10 C 9.170375 0.482704 -19.419137 0 CFG=1
M  V30 11 C 11.365668 9.032080 -8.721426 0
M  V30 12 C 8.455641 -0.170137 -16.722290 0
M  V30 13 C 9.651814 5.943866 -8.745428 0
M  V30 14 C 7.385575 0.462970 -17.620202 0 CFG=1
M  V30 15 C 9.414813 2.036058 -21.578814 0
M  V30 16 C 11.592170 7.646090 -8.175244 0 CFG=1
M  V30 17 N 7.375483 2.718801 -17.111166 0
M  V30 18 C 11.683227 8.820710 -7.253377 0 CFG=2
M  V30 19 O 10.090625 -0.078721 -18.487608 0
M  V30 20 C 7.275937 2.736546 -14.686603 0
M  V30 21 C 9.629869 7.625272 -6.760192 0
M  V30 22 C 6.260473 3.140173 -12.513097 0
M  V30 23 C 9.466564 -0.960123 -17.558781 0
M  V30 24 C 8.320194 2.592685 -18.207399 0
M  V30 25 C 8.112324 4.790933 -13.304613 0 CFG=1
M  V30 26 C 9.042013 4.962038 -14.537619 0
M  V30 27 C 9.864534 0.878892 -20.710324 0 CFG=2
M  V30 28 C 10.420884 6.790215 -10.995379 0 CFG=2
M  V30 29 C 10.271647 7.312844 -12.385114 0
M  V30 30 F 5.210698 3.613023 -13.185036 0
M  V30 31 O 6.715519 1.464742 -16.876722 0
M  V30 32 F 6.175404 1.814706 -12.385017 0
M  V30 33 F 6.242950 3.693728 -11.306632 0
M  V30 34 C 10.474044 6.731258 -7.685295 0 CFG=1
M  V30 35 C 7.553187 3.338595 -13.310158 0 CFG=2
M  V30 36 H 9.114122 4.178977 -11.453067 0
M  V30 37 H 10.975427 5.190215 -12.385019 0
M  V30 38 H 8.975415 7.707568 -9.786291 0
M  V30 39 H 10.175407 9.595830 -5.928185 0
M  V30 40 H 11.101518 8.245425 -5.291755 0
M  V30 41 H 9.236831 4.553654 -16.649965 0
M  V30 42 H 7.750510 5.364543 -16.216960 0
M  V30 43 H 7.551425 6.751596 -11.373842 0
M  V30 44 H 7.468808 5.430620 -10.232272 0
M  V30 45 H 7.210347 1.364236 -19.551134 0
M  V30 46 H 10.350017 9.257756 -9.030250 0
M  V30 47 H 12.145229 9.446793 -9.358167 0
M  V30 48 H 8.975302 0.612355 -16.172077 0
M  V30 49 H 7.984201 -0.809777 -15.976414 0
M  V30 50 H 8.736886 5.603969 -8.257639 0
M  V30 51 H 10.175406 5.026778 -9.010833 0
M  V30 52 H 6.686232 -0.301310 -17.960827 0
M  V30 53 H 9.936381 2.947052 -21.286374 0
M  V30 54 H 9.644085 1.827717 -22.624362 0
M  V30 55 H 8.341707 2.205651 -21.490237 0
M  V30 56 H 12.521238 7.190232 -8.480241 0
M  V30 57 H 12.665005 9.142457 -6.911386 0
M  V30 58 H 6.719789 1.812176 -14.688925 0
M  V30 59 H 8.865752 8.146388 -7.338453 0
M  V30 60 H 9.118528 7.055388 -5.985172 0
M  V30 61 H 10.229256 -1.397653 -16.914588 0
M  V30 62 H 8.975297 -1.785002 -18.076956 0
M  V30 63 H 8.209814 3.395440 -18.936421 0
M  V30 64 H 9.340411 2.605627 -17.822257 0
M  V30 65 H 7.280911 5.485481 -13.431128 0
M  V30 66 H 9.953040 4.390229 -14.389738 0
M  V30 67 H 9.356153 5.990173 -14.610588 0
M  V30 68 H 10.890666 0.547526 -20.855160 0
M  V30 69 H 11.420672 6.867591 -10.587928 0
M  V30 70 H 9.365285 7.865299 -12.626785 0
M  V30 71 H 11.163517 7.590225 -12.937732 0
M  V30 72 H 10.950478 5.989773 -7.042366 0
M  V30 73 H 8.319314 2.690949 -12.880347 0
M  V30 END ATOM
M  V30 BEGIN BOND
M  V30 1 1 2 1
M  V30 2 1 6 5
M  V30 3 1 7 1
M  V30 4 1 7 3
M  V30 5 1 10 8
M  V30 6 1 10 9
M  V30 7 1 13 3
M  V30 8 1 14 9
M  V30 9 1 14 12
M  V30 10 1 16 11
M  V30 11 1 17 6
M  V30 12 1 18 4
M  V30 13 1 18 11
M  V30 14 1 18 16
M  V30 15 1 10 19 CFG=1
M  V30 16 2 20 6
M  V30 17 1 21 4
M  V30 18 1 23 12
M  V30 19 1 23 19
M  V30 20 1 24 9
M  V30 21 1 24 17
M  V30 22 1 25 1
M  V30 23 1 26 5
M  V30 24 1 26 25
M  V30 25 1 27 8
M  V30 26 1 27 10
M  V30 27 1 27 15
M  V30 28 1 28 2
M  V30 29 1 28 3
M  V30 30 1 29 2
M  V30 31 1 29 28
M  V30 32 1 30 22
M  V30 33 1 31 14
M  V30 34 1 31 17
M  V30 35 1 32 22
M  V30 36 1 33 22
M  V30 37 1 34 13
M  V30 38 1 34 16
M  V30 39 1 34 21
M  V30 40 1 35 20
M  V30 41 1 35 22
M  V30 42 1 35 25
M  V30 43 1 1 36 CFG=1
M  V30 44 1 2 37 CFG=3
M  V30 45 1 3 38 CFG=1
M  V30 46 1 39 4
M  V30 47 1 40 4
M  V30 48 1 41 5
M  V30 49 1 42 5
M  V30 50 1 43 7
M  V30 51 1 44 7
M  V30 52 1 9 45 CFG=3
M  V30 53 1 46 11
M  V30 54 1 47 11
M  V30 55 1 48 12
M  V30 56 1 49 12
M  V30 57 1 50 13
M  V30 58 1 51 13
M  V30 59 1 14 52 CFG=3
M  V30 60 1 53 15
M  V30 61 1 54 15
M  V30 62 1 55 15
M  V30 63 1 16 56 CFG=3
M  V30 64 1 18 57 CFG=1
M  V30 65 1 58 20
M  V30 66 1 59 21
M  V30 67 1 60 21
M  V30 68 1 61 23
M  V30 69 1 62 23
M  V30 70 1 63 24
M  V30 71 1 64 24
M  V30 72 1 25 65 CFG=3
M  V30 73 1 66 26
M  V30 74 1 67 26
M  V30 75 1 27 68 CFG=1
M  V30 76 1 28 69 CFG=1
M  V30 77 1 70 29
M  V30 78 1 71 29
M  V30 79 1 34 72 CFG=1
M  V30 80 1 35 73 CFG=1
M  V30 END BOND
M  V30 END CTAB
M  END
>  <i_epik_Tot_Q>  (1) 
0

>  <i_epik_Tot_abs_Q>  (1) 
0

>  <i_i_glide_confnum>  (1) 
389

>  <i_i_glide_lignum>  (1) 
70

>  <i_i_glide_posenum>  (1) 
305

>  <i_i_glide_rotatable_bonds>  (1) 
5

>  <i_lp_mmshare_version>  (1) 
72125

>  <i_m_source_file_index>  (1) 
44

>  <i_f3d_flags>  (1) 
0

>  <num_sample>  (1) 
100

>  <b_lp_Chiralities_Consistent>  (1) 
1

>  <r_epik_Charging_Adjusted_Penalty>  (1) 
0

>  <r_epik_Ionization_Penalty>  (1) 
0.0012510015798316548

>  <r_epik_Ionization_Penalty_Charging>  (1) 
0

>  <r_epik_Ionization_Penalty_Neutral>  (1) 
0.0012510015798316548

>  <r_epik_State_Penalty>  (1) 
-0

>  <r_glide_ring_energy>  (1) 
0

>  <r_i_docking_score>  (1) 
-4.627089249171866

>  <r_i_glide_ecoul>  (1) 
-1.5264376227816714

>  <r_i_glide_eff_state_penalty>  (1) 
-0

>  <r_i_glide_einternal>  (1) 
23.167316733119058

>  <r_i_glide_emodel>  (1) 
-21.039719268890902

>  <r_i_glide_emodel_strain>  (1) 
0.83150949443584921

>  <r_i_glide_energy>  (1) 
-26.778297730877181

>  <r_i_glide_erotb>  (1) 
0.31537474361301371

>  <r_i_glide_esite>  (1) 
0

>  <r_i_glide_evdw>  (1) 
-25.25186010809551

>  <r_i_glide_gscore>  (1) 
-4.627089249171866

>  <r_i_glide_gscore_strain>  (1) 
0

>  <r_i_glide_hbond>  (1) 
0

>  <r_i_glide_ligand_efficiency>  (1) 
-0.13220254997633904

>  <r_i_glide_ligand_efficiency_ln>  (1) 
-1.0157487829061731

>  <r_i_glide_ligand_efficiency_sa>  (1) 
-0.43244330734862602

>  <r_i_glide_lipo>  (1) 
-2.0428650785217441

>  <r_i_glide_metal>  (1) 
-0

>  <r_i_glide_rewards>  (1) 
-1.4080402654411093

>  <r_lp_Energy>  (1) 
25.974439

>  <r_lp_tautomer_probability>  (1) 
1

>  <s_epik_Chemistry_Notes>  (1) 
This compound has a N-S or N-O group and may undergo hydrolysis at high or low pH.

>  <s_epik_cmdline>  (1) 
J2VwaWtfcHl0aG9uJywgJy1waHQnLCAnMS4wJywgJy1waCcsICc3LjQnLCAnLXRuJywgJzgnLCAnLW1hJywgJzUwMCcsICctaW1hZScsICc8aW5maWxlLm1hZT4nLCAnLW9tYWUnLCAnPG91dGZpbGUubWFlPic=

>  <s_epik_input>  (1) 
W0NIMl0xW0NASF0oW0NASF0xMilbQ0gyXVtDSDJdW0NASF0yW0NIMl1bQ0BASF0oW0NAQEhdKFtDQEBIXTM0KVtDSDJdNClbQ0gyXVtDQEhdM1tDQEBIXShbQ0gyXVtDSDJdNSlbQ0BASF0oQyhGKShGKUYpW0NIXT1DNU4oW0NIMl02KU9bQ0BASF0oW0NIMl1bQ0gyXU83KVtDQEBIXTZbQ0BAXTc4U1tDQEhdOFtDSDNd

>  <s_glide_docking_method>  (1) 
confgen

>  <s_i_glide_gridfile>  (1) 
gpcr_drd2_6luq_protein_autoprepared_prepared

>  <s_lp_Force_Field>  (1) 
S-OPLS

>  <s_lp_Variant>  (1) 
DiffSBDD_43-2

>  <s_m_source_file>  (1) 
generated_generic_title2_ligand_DiffSBDD_2026-06-23_prepared.sdf

>  <GenAI_Model>  (1) 
DiffSBDD

>  <Protein>  (1) 
generic_title2

$$$$
DiffSBDD_64
     RDKit          3D

  0  0  0  0  0  0  0  0  0  0999 V3000
M  V30 BEGIN CTAB
M  V30 COUNTS 77 80 0 0 1
M  V30 BEGIN ATOM
M  V30 1 C 7.559545 4.717661 -17.209413 0
M  V30 2 C 10.260333 8.992840 -7.572690 0
M  V30 3 C 5.561575 5.874459 -18.181863 0 CFG=2
M  V30 4 C 8.051652 7.055290 -13.081313 0
M  V30 5 C 12.057621 6.172830 -6.784884 0
M  V30 6 C 4.537699 7.956476 -19.402592 0
M  V30 7 C 8.262679 5.537208 -13.070029 0 CFG=1
M  V30 8 O 11.986815 9.574632 -6.121868 0
M  V30 9 C 6.578245 6.694672 -20.247779 0
M  V30 10 C 4.947334 6.483613 -16.906501 0
M  V30 11 C 9.068518 7.706204 -12.134846 0
M  V30 12 C 11.539704 6.402182 -5.363080 0
M  V30 13 C 10.736878 7.678955 -5.460707 0
M  V30 14 C 8.999814 6.158317 -19.639860 0
M  V30 15 N 7.038509 5.787982 -18.104944 0 CFG=2 CHG=1
M  V30 16 C 9.713045 5.140303 -15.953355 0
M  V30 17 C 11.303281 8.448959 -6.658597 0 CFG=1
M  V30 18 C 5.232913 6.588159 -19.516136 0 CFG=1
M  V30 19 C 7.522822 5.750844 -19.501845 0 CFG=1
M  V30 20 C 7.865965 5.070122 -11.667631 0
M  V30 21 C 8.834965 5.687927 -10.639927 0
M  V30 22 C 9.384647 8.106251 -8.440650 0
M  V30 23 C 11.231226 7.019521 -9.724970 0
M  V30 24 C 12.377546 7.672677 -8.974288 0
M  V30 25 C 12.277131 7.566125 -7.428822 0 CFG=2
M  V30 26 S 7.401928 4.646292 -14.409258 0
M  V30 27 N 8.975424 7.180945 -10.748315 0 CFG=1 CHG=1
M  V30 28 C 9.962415 7.824551 -9.831855 0 CFG=1
M  V30 29 C 8.182062 5.314435 -15.926458 0 CFG=2
M  V30 30 H 8.298031 4.115431 -17.740425 0
M  V30 31 H 6.773492 4.009305 -16.959674 0
M  V30 32 H 9.601012 9.590226 -6.960131 0
M  V30 33 H 10.847993 9.590225 -8.264142 0
M  V30 34 H 5.191741 4.854961 -18.297645 0
M  V30 35 H 8.174968 7.476795 -14.070506 0
M  V30 36 H 7.033927 7.306918 -12.777805 0
M  V30 37 H 12.966134 5.587071 -6.784971 0
M  V30 38 H 11.290730 5.590246 -7.286575 0
M  V30 39 H 5.188376 8.690521 -18.928108 0
M  V30 40 H 4.273903 8.338313 -20.388714 0
M  V30 41 H 3.614770 7.904282 -18.823560 0
M  V30 42 H 9.320464 5.313352 -13.192879 0
M  V30 43 H 12.390831 10.048378 -6.830797 0
M  V30 44 H 6.956562 7.715939 -20.183206 0
M  V30 45 H 6.496847 6.451437 -21.307725 0
M  V30 46 H 3.858394 6.495023 -16.961147 0
M  V30 47 H 5.207988 5.905477 -16.020406 0
M  V30 48 H 5.286842 7.506475 -16.741178 0
M  V30 49 H 8.905139 8.784531 -12.122516 0
M  V30 50 H 10.080841 7.543591 -12.505986 0
M  V30 51 H 12.342839 6.538631 -4.644781 0
M  V30 52 H 10.926615 5.590199 -4.985895 0
M  V30 53 H 10.833402 8.247435 -4.537198 0
M  V30 54 H 9.682060 7.442958 -5.604009 0
M  V30 55 H 9.289953 6.206215 -20.689534 0
M  V30 56 H 9.196083 7.136686 -19.200506 0
M  V30 57 H 9.662391 5.436894 -19.163794 0
M  V30 58 H 10.139070 5.612504 -16.838374 0
M  V30 59 H 10.217966 5.590351 -15.102485 0
M  V30 60 H 9.991334 4.087476 -15.986133 0
M  V30 61 H 4.575229 5.930934 -20.087407 0
M  V30 62 H 7.383502 4.742418 -19.894559 0
M  V30 63 H 7.918426 3.982312 -11.606344 0
M  V30 64 H 6.834715 5.346417 -11.440348 0
M  V30 65 H 9.784484 5.190760 -10.810271 0
M  V30 66 H 8.517660 5.427220 -9.628756 0
M  V30 67 H 8.575410 8.790179 -8.618292 0
M  V30 68 H 9.001263 7.225520 -7.923000 0
M  V30 69 H 11.571369 6.790637 -10.734951 0
M  V30 70 H 10.975391 6.091391 -9.222255 0
M  V30 71 H 12.510732 8.708455 -9.291114 0
M  V30 72 H 13.293060 7.195672 -9.319172 0
M  V30 73 H 13.241686 7.990119 -7.185321 0
M  V30 74 H 10.225816 8.790150 -10.262922 0
M  V30 75 H 7.946142 6.374639 -15.899819 0
M  V30 76 H 8.077456 7.524303 -10.371421 0
M  V30 77 H 7.350631 6.673862 -17.735304 0
M  V30 END ATOM
M  V30 BEGIN BOND
M  V30 1 1 7 4
M  V30 2 1 10 3
M  V30 3 1 11 4
M  V30 4 1 12 5
M  V30 5 1 13 12
M  V30 6 1 15 1
M  V30 7 1 15 3
M  V30 8 1 17 2
M  V30 9 1 17 8 CFG=1
M  V30 10 1 17 13
M  V30 11 1 18 3
M  V30 12 1 18 6
M  V30 13 1 18 9
M  V30 14 1 19 9
M  V30 15 1 19 14
M  V30 16 1 19 15
M  V30 17 1 20 7
M  V30 18 1 21 20
M  V30 19 1 22 2
M  V30 20 1 24 23
M  V30 21 1 25 5
M  V30 22 1 25 17
M  V30 23 1 25 24
M  V30 24 1 26 7
M  V30 25 1 27 11
M  V30 26 1 27 21
M  V30 27 1 28 22
M  V30 28 1 28 23
M  V30 29 1 28 27
M  V30 30 1 29 1
M  V30 31 1 29 16
M  V30 32 1 29 26
M  V30 33 1 30 1
M  V30 34 1 31 1
M  V30 35 1 32 2
M  V30 36 1 33 2
M  V30 37 1 3 34 CFG=3
M  V30 38 1 35 4
M  V30 39 1 36 4
M  V30 40 1 37 5
M  V30 41 1 38 5
M  V30 42 1 39 6
M  V30 43 1 40 6
M  V30 44 1 41 6
M  V30 45 1 7 42 CFG=3
M  V30 46 1 43 8
M  V30 47 1 44 9
M  V30 48 1 45 9
M  V30 49 1 46 10
M  V30 50 1 47 10
M  V30 51 1 48 10
M  V30 52 1 49 11
M  V30 53 1 50 11
M  V30 54 1 51 12
M  V30 55 1 52 12
M  V30 56 1 53 13
M  V30 57 1 54 13
M  V30 58 1 55 14
M  V30 59 1 56 14
M  V30 60 1 57 14
M  V30 61 1 58 16
M  V30 62 1 59 16
M  V30 63 1 60 16
M  V30 64 1 18 61 CFG=3
M  V30 65 1 19 62 CFG=3
M  V30 66 1 63 20
M  V30 67 1 64 20
M  V30 68 1 65 21
M  V30 69 1 66 21
M  V30 70 1 67 22
M  V30 71 1 68 22
M  V30 72 1 69 23
M  V30 73 1 70 23
M  V30 74 1 71 24
M  V30 75 1 72 24
M  V30 76 1 25 73 CFG=1
M  V30 77 1 28 74 CFG=3
M  V30 78 1 29 75 CFG=3
M  V30 79 1 27 76 CFG=1
M  V30 80 1 15 77 CFG=1
M  V30 END BOND
M  V30 END CTAB
M  END
>  <i_epik_Tot_Q>  (1) 
2

>  <i_epik_Tot_abs_Q>  (1) 
2

>  <i_i_glide_confnum>  (1) 
18

>  <i_i_glide_lignum>  (1) 
105

>  <i_i_glide_posenum>  (1) 
119

>  <i_i_glide_rotatable_bonds>  (1) 
6

>  <i_lp_mmshare_version>  (1) 
72125

>  <i_m_source_file_index>  (1) 
65

>  <i_f3d_flags>  (1) 
0

>  <num_sample>  (1) 
100

>  <b_lp_Chiralities_Consistent>  (1) 
1

>  <r_epik_Charging_Adjusted_Penalty>  (1) 
0.010385271147369776

>  <r_epik_Ionization_Penalty>  (1) 
0.010385491156522124

>  <r_epik_Ionization_Penalty_Charging>  (1) 
0.010385271147369776

>  <r_epik_Ionization_Penalty_Neutral>  (1) 
2.2000915234807092e-07

>  <r_epik_State_Penalty>  (1) 
-0

>  <r_glide_ring_energy>  (1) 
0

>  <r_i_docking_score>  (1) 
-4.6222074710614249

>  <r_i_glide_ecoul>  (1) 
-6.5659957141796079

>  <r_i_glide_eff_state_penalty>  (1) 
-0

>  <r_i_glide_einternal>  (1) 
7.0622627864899865

>  <r_i_glide_emodel>  (1) 
-8.8788122103564575

>  <r_i_glide_emodel_strain>  (1) 
2.5931152389185712

>  <r_i_glide_energy>  (1) 
-10.914519178134508

>  <r_i_glide_erotb>  (1) 
0.5496323063178965

>  <r_i_glide_esite>  (1) 
-0.10000000000000001

>  <r_i_glide_evdw>  (1) 
-4.3485234639548995

>  <r_i_glide_gscore>  (1) 
-4.6222074710614249

>  <r_i_glide_gscore_strain>  (1) 
0

>  <r_i_glide_hbond>  (1) 
-0.19747162436423321

>  <r_i_glide_ligand_efficiency>  (1) 
-0.15938646451935948

>  <r_i_glide_ligand_efficiency_ln>  (1) 
-1.0583683018046752

>  <r_i_glide_ligand_efficiency_sa>  (1) 
-0.48968571672940853

>  <r_i_glide_lipo>  (1) 
-2.2588933726904004

>  <r_i_glide_metal>  (1) 
-0

>  <r_i_glide_rewards>  (1) 
-1.4131492500000007

>  <r_lp_Energy>  (1) 
49.546199999999999

>  <r_lp_tautomer_probability>  (1) 
1

>  <s_epik_cmdline>  (1) 
J2VwaWtfcHl0aG9uJywgJy1waHQnLCAnMS4wJywgJy1waCcsICc3LjQnLCAnLXRuJywgJzgnLCAnLW1hJywgJzUwMCcsICctaW1hZScsICc8aW5maWxlLm1hZT4nLCAnLW9tYWUnLCAnPG91dGZpbGUubWFlPic=

>  <s_epik_input>  (1) 
W0NIM11bQ0BIXTFbQ0gyXVtDQEBIXShbQ0gzXSlOKFtDQEhdMVtDSDNdKVtDSDJdW0NASF0oW0NIM10pU1tDSF0yW0NIMl1bQ0gyXU4oW0NIMl1bQ0gyXTIpW0NAQEhdKFtDSDJdW0NIMl0zKVtDSDJdW0NIMl1bQ0BASF0oW0NAQF0zNFtPSF0pW0NIMl1bQ0gyXVtDSDJdNA==

>  <s_glide_docking_method>  (1) 
confgen

>  <s_i_glide_gridfile>  (1) 
gpcr_drd2_6luq_protein_autoprepared_prepared

>  <s_lp_Force_Field>  (1) 
S-OPLS

>  <s_lp_Variant>  (1) 
DiffSBDD_64-4

>  <s_m_source_file>  (1) 
generated_generic_title2_ligand_DiffSBDD_2026-06-23_prepared.sdf

>  <GenAI_Model>  (1) 
DiffSBDD

>  <Protein>  (1) 
generic_title2

$$$$
DiffSBDD_88
     RDKit          3D

  0  0  0  0  0  0  0  0  0  0999 V3000
M  V30 BEGIN CTAB
M  V30 COUNTS 37 38 0 0 1
M  V30 BEGIN ATOM
M  V30 1 C 7.002840 3.807997 -12.655430 0 CFG=1
M  V30 2 F 5.775414 5.194116 -11.185025 0
M  V30 3 C 6.050759 0.088025 -15.458711 0
M  V30 4 C 5.380731 -0.848887 -16.469752 0
M  V30 5 O 8.575411 2.452443 -16.507168 0
M  V30 6 O 7.106717 -2.164928 -17.585025 0
M  V30 7 O 8.197466 4.155979 -11.985182 0
M  V30 8 C 6.348489 -0.972772 -17.656504 0 CFG=2
M  V30 9 C 7.398847 4.703910 -15.053556 0
M  V30 10 N 7.049784 0.797833 -16.256676 0
M  V30 11 C 5.953662 4.924761 -12.478063 0 CFG=1
M  V30 12 F 6.575394 6.866243 -15.535162 0
M  V30 13 C 6.343519 5.795421 -14.776234 0 CFG=2
M  V30 14 C 7.733854 1.882569 -15.808407 0
M  V30 15 C 7.426111 7.036396 -12.801901 0
M  V30 16 N 7.375357 2.252604 -14.515522 0
M  V30 17 C 7.268773 3.472648 -14.120316 0
M  V30 18 C 7.278025 0.246073 -17.583365 0
M  V30 19 C 6.227315 6.202130 -13.297363 0 CFG=2
M  V30 20 H 6.613084 2.913677 -12.167339 0
M  V30 21 H 6.549400 -0.483625 -14.674272 0
M  V30 22 H 5.315950 0.744683 -14.992265 0
M  V30 23 H 4.452372 -0.392948 -16.815549 0
M  V30 24 H 5.114373 -1.811830 -16.034630 0
M  V30 25 H 7.375405 -2.310096 -16.682242 0
M  V30 26 H 7.961215 4.560392 -11.161993 0
M  V30 27 H 5.804381 -0.987165 -18.601763 0
M  V30 28 H 8.403200 5.112992 -14.940156 0
M  V30 29 H 7.281455 4.449681 -16.104542 0
M  V30 30 H 4.990797 4.523942 -12.799395 0
M  V30 31 H 5.375381 5.424804 -15.110688 0
M  V30 32 H 8.379029 6.533841 -12.960880 0
M  V30 33 H 7.478620 7.990207 -13.326608 0
M  V30 34 H 7.339071 7.257610 -11.737493 0
M  V30 35 H 8.326023 -0.015268 -17.742396 0
M  V30 36 H 6.995170 0.985380 -18.334385 0
M  V30 37 H 5.352896 6.845439 -13.197092 0
M  V30 END ATOM
M  V30 BEGIN BOND
M  V30 1 1 4 3
M  V30 2 1 7 1
M  V30 3 1 8 4
M  V30 4 1 8 6
M  V30 5 1 10 3
M  V30 6 1 11 1
M  V30 7 1 11 2
M  V30 8 1 13 9
M  V30 9 1 13 12
M  V30 10 2 14 5
M  V30 11 1 14 10
M  V30 12 1 16 14
M  V30 13 1 17 1
M  V30 14 1 17 9
M  V30 15 2 17 16
M  V30 16 1 18 8
M  V30 17 1 18 10
M  V30 18 1 19 11
M  V30 19 1 19 13
M  V30 20 1 19 15
M  V30 21 1 1 20 CFG=1
M  V30 22 1 21 3
M  V30 23 1 22 3
M  V30 24 1 23 4
M  V30 25 1 24 4
M  V30 26 1 25 6
M  V30 27 1 26 7
M  V30 28 1 8 27 CFG=3
M  V30 29 1 28 9
M  V30 30 1 29 9
M  V30 31 1 11 30 CFG=3
M  V30 32 1 13 31 CFG=3
M  V30 33 1 32 15
M  V30 34 1 33 15
M  V30 35 1 34 15
M  V30 36 1 35 18
M  V30 37 1 36 18
M  V30 38 1 19 37 CFG=3
M  V30 END BOND
M  V30 END CTAB
M  END
>  <i_epik_Tot_Q>  (1) 
0

>  <i_epik_Tot_abs_Q>  (1) 
0

>  <i_i_glide_confnum>  (1) 
12

>  <i_i_glide_lignum>  (1) 
161

>  <i_i_glide_posenum>  (1) 
137

>  <i_i_glide_rotatable_bonds>  (1) 
4

>  <i_lp_mmshare_version>  (1) 
72125

>  <i_m_source_file_index>  (1) 
89

>  <i_f3d_flags>  (1) 
0

>  <num_sample>  (1) 
100

>  <b_lp_Chiralities_Consistent>  (1) 
1

>  <r_epik_Charging_Adjusted_Penalty>  (1) 
0.16120785643113181

>  <r_epik_Ionization_Penalty>  (1) 
0.1612079103687071

>  <r_epik_Ionization_Penalty_Charging>  (1) 
0

>  <r_epik_Ionization_Penalty_Neutral>  (1) 
0.1612079103687071

>  <r_epik_State_Penalty>  (1) 
0.16120785643113181

>  <r_glide_ring_energy>  (1) 
0.40670562658453302

>  <r_i_docking_score>  (1) 
-4.6211752043373799

>  <r_i_glide_ecoul>  (1) 
-1.9715015550572992

>  <r_i_glide_eff_state_penalty>  (1) 
0.16120785643113181

>  <r_i_glide_einternal>  (1) 
2.1338980562264336

>  <r_i_glide_emodel>  (1) 
-34.522174984405787

>  <r_i_glide_emodel_strain>  (1) 
0.96929337329859067

>  <r_i_glide_energy>  (1) 
-28.170065944322989

>  <r_i_glide_erotb>  (1) 
0.47132455663783185

>  <r_i_glide_esite>  (1) 
-0.044938721023942516

>  <r_i_glide_evdw>  (1) 
-26.198564389265691

>  <r_i_glide_gscore>  (1) 
-4.7823830607685114

>  <r_i_glide_gscore_strain>  (1) 
0

>  <r_i_glide_hbond>  (1) 
-0.32000000000000001

>  <r_i_glide_ligand_efficiency>  (1) 
-0.2432197475967042

>  <r_i_glide_ligand_efficiency_ln>  (1) 
-1.1715671680422222

>  <r_i_glide_ligand_efficiency_sa>  (1) 
-0.64900797548878086

>  <r_i_glide_lipo>  (1) 
-0.84148813382715337

>  <r_i_glide_metal>  (1) 
-0

>  <r_i_glide_rewards>  (1) 
-2.4416273098333674

>  <r_lp_Energy>  (1) 
16.803401000000001

>  <s_epik_Chemistry_Notes>  (1) 
This compound has an imine and may undergo hydrolysis.

>  <s_epik_cmdline>  (1) 
J2VwaWtfcHl0aG9uJywgJy1waHQnLCAnMS4wJywgJy1waCcsICc3LjQnLCAnLXRuJywgJzgnLCAnLW1hJywgJzUwMCcsICctaW1hZScsICc8aW5maWxlLm1hZT4nLCAnLW9tYWUnLCAnPG91dGZpbGUubWFlPic=

>  <s_epik_input>  (1) 
W09IXVtDQEhdMVtDQEBIXShGKVtDQEBIXShbQ0gzXSlbQ0BASF0oRilbQ0gyXUMvMT1OXEMoPU8pTihbQ0gyXTIpW0NIMl1bQ0gyXVtDQEBIXTJbT0hd

>  <s_glide_docking_method>  (1) 
confgen

>  <s_i_glide_gridfile>  (1) 
gpcr_drd2_6luq_protein_autoprepared_prepared

>  <s_lp_Force_Field>  (1) 
S-OPLS

>  <s_lp_Variant>  (1) 
DiffSBDD_88-2

>  <s_m_source_file>  (1) 
generated_generic_title2_ligand_DiffSBDD_2026-06-23_prepared.sdf

>  <GenAI_Model>  (1) 
DiffSBDD

>  <Protein>  (1) 
generic_title2

$$$$
DiffSBDD_84
     RDKit          3D

  0  0  0  0  0  0  0  0  0  0999 V3000
M  V30 BEGIN CTAB
M  V30 COUNTS 42 43 0 0 1
M  V30 BEGIN ATOM
M  V30 1 C 7.661741 4.002635 -14.462649 0
M  V30 2 C 11.458880 6.793640 -4.440255 0
M  V30 3 C 8.116840 3.259781 -13.353317 0
M  V30 4 C 10.717088 7.664395 -8.730170 0
M  V30 5 O 11.921532 7.590229 -8.498914 0
M  V30 6 C 10.975410 8.849456 -5.669370 0
M  V30 7 N 9.775382 7.259205 -7.862980 0
M  V30 8 C 12.175390 7.539173 -3.479503 0
M  V30 9 C 12.288093 8.936592 -3.613718 0
M  V30 10 C 7.660381 5.409307 -14.415461 0
M  V30 11 C 8.091036 1.742628 -13.393795 0
M  V30 12 C 11.687312 9.590224 -4.707959 0
M  V30 13 O 7.221236 3.359104 -15.581725 0
M  V30 14 C 10.093096 6.628911 -6.579440 0
M  V30 15 C 8.591254 5.338113 -12.158262 0
M  V30 16 C 8.590830 3.929331 -12.204775 0
M  V30 17 C 10.861955 7.446159 -5.541157 0
M  V30 18 C 10.226453 8.243400 -10.048914 0
M  V30 19 C 9.085679 6.058036 -10.911526 0
M  V30 20 C 8.117078 6.076515 -13.264172 0
M  V30 21 C 10.088456 7.208069 -11.183420 0
M  V30 22 H 11.371310 5.722236 -4.335320 0
M  V30 23 H 10.516882 9.357181 -6.503571 0
M  V30 24 H 8.796367 7.355810 -8.115314 0
M  V30 25 H 12.634605 7.038158 -2.639998 0
M  V30 26 H 12.834737 9.507882 -2.877008 0
M  V30 27 H 7.305487 5.978852 -15.261604 0
M  V30 28 H 8.575410 1.309313 -12.523521 0
M  V30 29 H 7.057959 1.394891 -13.403103 0
M  V30 30 H 8.575424 1.361632 -14.291543 0
M  V30 31 H 11.771793 10.660755 -4.810354 0
M  V30 32 H 6.975350 3.948635 -16.277013 0
M  V30 33 H 9.151352 6.319497 -6.125179 0
M  V30 34 H 10.650458 5.712918 -6.781705 0
M  V30 35 H 8.948347 3.361242 -11.357717 0
M  V30 36 H 10.975207 8.977642 -10.345696 0
M  V30 37 H 9.287985 8.778851 -9.896425 0
M  V30 38 H 8.196350 6.407070 -10.392021 0
M  V30 39 H 9.545480 5.337322 -10.233947 0
M  V30 40 H 8.104900 7.155168 -13.231192 0
M  V30 41 H 11.061653 6.790227 -11.442046 0
M  V30 42 H 9.782440 7.780266 -12.056629 0
M  V30 END ATOM
M  V30 BEGIN BOND
M  V30 1 2 3 1
M  V30 2 2 5 4
M  V30 3 1 7 4
M  V30 4 1 8 2
M  V30 5 2 9 8
M  V30 6 1 10 1
M  V30 7 1 11 3
M  V30 8 2 12 6
M  V30 9 1 12 9
M  V30 10 1 13 1
M  V30 11 1 14 7
M  V30 12 1 16 3
M  V30 13 2 16 15
M  V30 14 2 17 2
M  V30 15 1 17 6
M  V30 16 1 17 14
M  V30 17 1 18 4
M  V30 18 1 19 15
M  V30 19 2 20 10
M  V30 20 1 20 15
M  V30 21 1 21 18
M  V30 22 1 21 19
M  V30 23 1 22 2
M  V30 24 1 23 6
M  V30 25 1 24 7
M  V30 26 1 25 8
M  V30 27 1 26 9
M  V30 28 1 27 10
M  V30 29 1 28 11
M  V30 30 1 29 11
M  V30 31 1 30 11
M  V30 32 1 31 12
M  V30 33 1 32 13
M  V30 34 1 33 14
M  V30 35 1 34 14
M  V30 36 1 35 16
M  V30 37 1 36 18
M  V30 38 1 37 18
M  V30 39 1 38 19
M  V30 40 1 39 19
M  V30 41 1 40 20
M  V30 42 1 41 21
M  V30 43 1 42 21
M  V30 END BOND
M  V30 END CTAB
M  END
>  <i_epik_Tot_Q>  (1) 
0

>  <i_epik_Tot_abs_Q>  (1) 
0

>  <i_i_glide_confnum>  (1) 
24

>  <i_i_glide_lignum>  (1) 
152

>  <i_i_glide_posenum>  (1) 
313

>  <i_i_glide_rotatable_bonds>  (1) 
8

>  <i_lp_mmshare_version>  (1) 
72125

>  <i_m_source_file_index>  (1) 
85

>  <i_f3d_flags>  (1) 
0

>  <num_sample>  (1) 
100

>  <b_lp_Chiralities_Consistent>  (1) 
1

>  <r_epik_Charging_Adjusted_Penalty>  (1) 
0

>  <r_epik_Ionization_Penalty>  (1) 
0.0004542944529878683

>  <r_epik_Ionization_Penalty_Charging>  (1) 
0

>  <r_epik_Ionization_Penalty_Neutral>  (1) 
0.0004542944529878683

>  <r_epik_State_Penalty>  (1) 
-0

>  <r_glide_ring_energy>  (1) 
0

>  <r_i_docking_score>  (1) 
-4.6198654557147663

>  <r_i_glide_ecoul>  (1) 
-3.8799590262185277

>  <r_i_glide_eff_state_penalty>  (1) 
-0

>  <r_i_glide_einternal>  (1) 
2.8770441643279243

>  <r_i_glide_emodel>  (1) 
-47.079582061981633

>  <r_i_glide_emodel_strain>  (1) 
0.82974402833082905

>  <r_i_glide_energy>  (1) 
-37.999906658876114

>  <r_i_glide_erotb>  (1) 
2.7062369522687115

>  <r_i_glide_esite>  (1) 
-0.070549777381955558

>  <r_i_glide_evdw>  (1) 
-34.119947632657585

>  <r_i_glide_gscore>  (1) 
-4.6198654557147663

>  <r_i_glide_gscore_strain>  (1) 
0

>  <r_i_glide_hbond>  (1) 
-0.057025922197656918

>  <r_i_glide_ligand_efficiency>  (1) 
-0.21999359312927458

>  <r_i_glide_ligand_efficiency_ln>  (1) 
-1.1422523986083242

>  <r_i_glide_ligand_efficiency_sa>  (1) 
-0.60694564273330731

>  <r_i_glide_lipo>  (1) 
-2.8959794842398408

>  <r_i_glide_metal>  (1) 
-0

>  <r_i_glide_rewards>  (1) 
-2.0145559885983655

>  <r_lp_Energy>  (1) 
14.408657

>  <r_lp_tautomer_probability>  (1) 
1

>  <s_epik_cmdline>  (1) 
J2VwaWtfcHl0aG9uJywgJy1waHQnLCAnMS4wJywgJy1waCcsICc3LjQnLCAnLXRuJywgJzgnLCAnLW1hJywgJzUwMCcsICctaW1hZScsICc8aW5maWxlLm1hZT4nLCAnLW9tYWUnLCAnPG91dGZpbGUubWFlPic=

>  <s_epik_input>  (1) 
W09IXWMxYyhbQ0gzXSlbY0hdYyhbY0hdW2NIXTEpW0NIMl1bQ0gyXVtDSDJdQyg9TylbTkhdW0NIMl1jMltjSF1bY0hdW2NIXVtjSF1bY0hdMg==

>  <s_glide_docking_method>  (1) 
confgen

>  <s_i_glide_gridfile>  (1) 
gpcr_drd2_6luq_protein_autoprepared_prepared

>  <s_lp_Force_Field>  (1) 
S-OPLS

>  <s_lp_Variant>  (1) 
DiffSBDD_84-1

>  <s_m_source_file>  (1) 
generated_generic_title2_ligand_DiffSBDD_2026-06-23_prepared.sdf

>  <GenAI_Model>  (1) 
DiffSBDD

>  <Protein>  (1) 
generic_title2

$$$$
DiffSBDD_70
     RDKit          3D

  0  0  0  0  0  0  0  0  0  0999 V3000
M  V30 BEGIN CTAB
M  V30 COUNTS 74 78 0 0 1
M  V30 BEGIN ATOM
M  V30 1 C 6.341298 1.067676 -17.450132 0
M  V30 2 C 9.936917 7.391245 -11.534607 0
M  V30 3 C 9.825495 2.177908 -18.011872 0
M  V30 4 C 8.881608 6.673047 -12.380833 0
M  V30 5 C 17.486274 6.875253 -17.414071 0
M  V30 6 N 16.714826 4.835627 -16.384189 0
M  V30 7 C 6.026214 3.286191 -13.251627 0
M  V30 8 C 6.726995 5.310285 -11.882273 0 CFG=1
M  V30 9 C 6.306909 4.663689 -10.579831 0
M  V30 10 C 7.910698 2.095861 -19.609509 0
M  V30 11 C 6.911768 4.546957 -13.202380 0 CFG=2
M  V30 12 O 13.570861 4.517871 -19.034215 0
M  V30 13 C 7.706079 5.192933 -10.754916 0 CFG=2
M  V30 14 C 7.573434 5.307329 -15.589237 0
M  V30 15 C 6.636846 5.457043 -14.401678 0
M  V30 16 C 8.321434 2.292571 -18.131267 0 CFG=1
M  V30 17 C 16.264745 7.792694 -19.316471 0
M  V30 18 C 12.667902 3.415998 -18.907129 0
M  V30 19 O 7.724698 1.330043 -17.255251 0
M  V30 20 Cl 18.437220 9.189400 -18.477452 0
M  V30 21 C 7.665650 3.878960 -16.157526 0
M  V30 22 C 9.576170 4.493222 -17.746729 0 CFG=2
M  V30 23 C 17.327126 7.870665 -18.399454 0
M  V30 24 C 5.630408 6.346624 -14.404475 0
M  V30 25 C 9.692049 5.361682 -19.011523 0
M  V30 26 N 10.422797 3.334151 -17.814888 0
M  V30 27 C 15.360184 6.721194 -19.248839 0
M  V30 28 C 11.855406 3.483661 -17.595436 0
M  V30 29 C 16.582411 5.793825 -17.329172 0
M  V30 30 N 14.764106 3.691702 -17.216384 0
M  V30 31 C 15.775401 3.878184 -16.368794 0
M  V30 32 N 7.669263 6.390332 -11.585025 0 CFG=1 CHG=1
M  V30 33 O 10.406205 1.093771 -18.085225 0
M  V30 34 C 8.169923 3.792417 -17.619577 0 CFG=1
M  V30 35 C 14.635588 4.648768 -18.160121 0
M  V30 36 C 15.521657 5.730853 -18.259278 0
M  V30 37 H 5.942006 0.539395 -16.584079 0
M  V30 38 H 5.773417 1.986980 -17.585163 0
M  V30 39 H 6.182799 0.435274 -18.323386 0
M  V30 40 H 10.828840 7.589989 -12.126323 0
M  V30 41 H 9.563089 8.346097 -11.162973 0
M  V30 42 H 10.236187 6.789249 -10.675820 0
M  V30 43 H 9.322337 5.781377 -12.824468 0
M  V30 44 H 8.575223 7.331566 -13.188632 0
M  V30 45 H 18.304080 6.942834 -16.713116 0
M  V30 46 H 6.175462 2.709687 -14.160735 0
M  V30 47 H 6.261925 2.599317 -12.440327 0
M  V30 48 H 4.968180 3.541277 -13.186396 0
M  V30 49 H 5.623982 5.261351 -9.985025 0
M  V30 50 H 6.175510 3.590424 -10.491797 0
M  V30 51 H 8.512723 2.704082 -20.284481 0
M  V30 52 H 8.033050 1.056460 -19.915139 0
M  V30 53 H 6.869903 2.372435 -19.779185 0
M  V30 54 H 7.941628 4.195628 -13.259879 0
M  V30 55 H 8.533923 4.515882 -10.959234 0
M  V30 56 H 7.247673 5.987749 -16.377473 0
M  V30 57 H 8.553385 5.657404 -15.268183 0
M  V30 58 H 16.143979 8.556391 -20.071331 0
M  V30 59 H 13.195924 2.464836 -18.991843 0
M  V30 60 H 12.001312 3.460355 -19.769394 0
M  V30 61 H 8.290391 3.265320 -15.507470 0
M  V30 62 H 6.673953 3.442303 -16.122572 0
M  V30 63 H 9.847555 5.087050 -16.876961 0
M  V30 64 H 4.975540 6.447034 -13.553958 0
M  V30 65 H 5.451310 6.984655 -15.258071 0
M  V30 66 H 9.002428 6.204881 -18.963740 0
M  V30 67 H 10.697402 5.770754 -19.115720 0
M  V30 68 H 9.467799 4.800417 -19.918430 0
M  V30 69 H 14.542147 6.659445 -19.952502 0
M  V30 70 H 12.034838 4.433211 -17.089548 0
M  V30 71 H 12.203843 2.717986 -16.899210 0
M  V30 72 H 15.873452 3.138498 -15.587489 0
M  V30 73 H 7.442846 4.316002 -18.242084 0
M  V30 74 H 7.310344 7.149004 -11.002772 0
M  V30 END ATOM
M  V30 BEGIN BOND
M  V30 1 1 4 2
M  V30 2 1 8 9 CFG=1
M  V30 3 1 11 7
M  V30 4 1 11 8
M  V30 5 1 13 8
M  V30 6 1 13 9
M  V30 7 1 15 11
M  V30 8 1 15 14
M  V30 9 1 16 3
M  V30 10 1 16 10
M  V30 11 1 18 12
M  V30 12 1 19 1
M  V30 13 1 16 19 CFG=1
M  V30 14 1 21 14
M  V30 15 2 23 5
M  V30 16 1 23 17
M  V30 17 1 23 20
M  V30 18 2 24 15
M  V30 19 1 25 22
M  V30 20 1 26 3
M  V30 21 1 26 22
M  V30 22 2 27 17
M  V30 23 1 28 18
M  V30 24 1 28 26
M  V30 25 1 29 5
M  V30 26 2 29 6
M  V30 27 1 31 6
M  V30 28 2 31 30
M  V30 29 1 32 4
M  V30 30 1 32 8
M  V30 31 1 32 13
M  V30 32 2 33 3
M  V30 33 1 34 16
M  V30 34 1 34 21
M  V30 35 1 34 22
M  V30 36 1 35 12
M  V30 37 1 35 30
M  V30 38 1 36 27
M  V30 39 1 36 29
M  V30 40 2 36 35
M  V30 41 1 37 1
M  V30 42 1 38 1
M  V30 43 1 39 1
M  V30 44 1 40 2
M  V30 45 1 41 2
M  V30 46 1 42 2
M  V30 47 1 43 4
M  V30 48 1 44 4
M  V30 49 1 45 5
M  V30 50 1 46 7
M  V30 51 1 47 7
M  V30 52 1 48 7
M  V30 53 1 49 9
M  V30 54 1 50 9
M  V30 55 1 51 10
M  V30 56 1 52 10
M  V30 57 1 53 10
M  V30 58 1 11 54 CFG=3
M  V30 59 1 13 55 CFG=3
M  V30 60 1 56 14
M  V30 61 1 57 14
M  V30 62 1 58 17
M  V30 63 1 59 18
M  V30 64 1 60 18
M  V30 65 1 61 21
M  V30 66 1 62 21
M  V30 67 1 22 63 CFG=1
M  V30 68 1 64 24
M  V30 69 1 65 24
M  V30 70 1 66 25
M  V30 71 1 67 25
M  V30 72 1 68 25
M  V30 73 1 69 27
M  V30 74 1 70 28
M  V30 75 1 71 28
M  V30 76 1 72 31
M  V30 77 1 34 73 CFG=3
M  V30 78 1 32 74 CFG=1
M  V30 END BOND
M  V30 END CTAB
M  END
>  <i_epik_Tot_Q>  (1) 
1

>  <i_epik_Tot_abs_Q>  (1) 
1

>  <i_i_glide_confnum>  (1) 
255

>  <i_i_glide_lignum>  (1) 
113

>  <i_i_glide_posenum>  (1) 
214

>  <i_i_glide_rotatable_bonds>  (1) 
11

>  <i_lp_mmshare_version>  (1) 
72125

>  <i_m_source_file_index>  (1) 
71

>  <i_f3d_flags>  (1) 
0

>  <num_sample>  (1) 
100

>  <b_lp_Chiralities_Consistent>  (1) 
1

>  <r_epik_Charging_Adjusted_Penalty>  (1) 
0.028882640618341202

>  <r_epik_Ionization_Penalty>  (1) 
0.014531529159765241

>  <r_epik_Ionization_Penalty_Charging>  (1) 
0.014441320309170608

>  <r_epik_Ionization_Penalty_Neutral>  (1) 
9.020885059463329e-05

>  <r_epik_State_Penalty>  (1) 
0.014441320309170594

>  <r_glide_ring_energy>  (1) 
0

>  <r_i_docking_score>  (1) 
-4.6191316838593153

>  <r_i_glide_ecoul>  (1) 
-6.8855573035865847

>  <r_i_glide_eff_state_penalty>  (1) 
0.014441320309170594

>  <r_i_glide_einternal>  (1) 
8.1972919352004077

>  <r_i_glide_emodel>  (1) 
-48.299246812364558

>  <r_i_glide_emodel_strain>  (1) 
0.010639535849676918

>  <r_i_glide_energy>  (1) 
-37.981032951972374

>  <r_i_glide_erotb>  (1) 
0.62084064417162321

>  <r_i_glide_esite>  (1) 
-0.12634563191844142

>  <r_i_glide_evdw>  (1) 
-31.095475648385786

>  <r_i_glide_gscore>  (1) 
-4.6335730041684862

>  <r_i_glide_gscore_strain>  (1) 
0

>  <r_i_glide_hbond>  (1) 
-0.44744920607318556

>  <r_i_glide_ligand_efficiency>  (1) 
-0.12830921344053653

>  <r_i_glide_ligand_efficiency_ln>  (1) 
-1.0077697389017881

>  <r_i_glide_ligand_efficiency_sa>  (1) 
-0.42366768814354433

>  <r_i_glide_lipo>  (1) 
-1.5330994518998347

>  <r_i_glide_metal>  (1) 
-0

>  <r_i_glide_rewards>  (1) 
-0.55991198049137059

>  <r_lp_Energy>  (1) 
33.740380000000002

>  <r_lp_tautomer_probability>  (1) 
1

>  <s_epik_cmdline>  (1) 
J2VwaWtfcHl0aG9uJywgJy1waHQnLCAnMS4wJywgJy1waCcsICc3LjQnLCAnLXRuJywgJzgnLCAnLW1hJywgJzUwMCcsICctaW1hZScsICc8aW5maWxlLm1hZT4nLCAnLW9tYWUnLCAnPG91dGZpbGUubWFlPic=

>  <s_epik_input>  (1) 
W2NIXTFjKENsKVtjSF1bY0hdYyhjMTIpYyhuW2NIXW4yKU9bQ0gyXVtDSDJdTihDKD1PKVtDQEBdMyhbQ0gzXSlPW0NIM10pW0NAQEhdKFtDSDNdKVtDQEBIXTNbQ0gyXVtDSDJdQyg9W0NIMl0pW0NASF0oW0NIM10pQzQ1W0NASF0oW0NIMl00KU41W0NIMl1bQ0gzXQ==

>  <s_glide_docking_method>  (1) 
confgen

>  <s_i_glide_gridfile>  (1) 
gpcr_drd2_6luq_protein_autoprepared_prepared

>  <s_lp_Force_Field>  (1) 
S-OPLS

>  <s_lp_Variant>  (1) 
DiffSBDD_70-1

>  <s_m_source_file>  (1) 
generated_generic_title2_ligand_DiffSBDD_2026-06-23_prepared.sdf

>  <GenAI_Model>  (1) 
DiffSBDD

>  <Protein>  (1) 
generic_title2

$$$$
DiffSBDD_76
     RDKit          3D

  0  0  0  0  0  0  0  0  0  0999 V3000
M  V30 BEGIN CTAB
M  V30 COUNTS 53 56 0 0 1
M  V30 BEGIN ATOM
M  V30 1 N 7.965367 5.977171 -12.105590 0
M  V30 2 N 11.775049 7.808532 -4.385028 0
M  V30 3 C 6.665931 5.474891 -14.128962 0 CFG=2
M  V30 4 C 11.440776 7.041346 -5.584048 0
M  V30 5 F 11.054995 7.990235 -10.752052 0
M  V30 6 C 11.775859 9.108570 -4.172742 0
M  V30 7 C 6.420594 5.924085 -15.562872 0
M  V30 8 C 7.838831 6.261819 -13.524872 0
M  V30 9 C 8.975413 5.762676 -7.915152 0
M  V30 10 C 9.360508 5.923504 -11.711789 0
M  V30 11 C 5.931376 6.784577 -18.208001 0
M  V30 12 N 12.175409 7.186611 -3.260810 0
M  V30 13 C 6.725023 5.644280 -17.981236 0
M  V30 14 C 5.386508 7.493728 -17.121934 0
M  V30 15 C 7.815149 3.979441 -16.446189 0
M  V30 16 N 11.400308 9.966220 -5.195080 0
M  V30 17 C 8.034145 3.546843 -14.995650 0
M  V30 18 C 5.631851 7.067824 -15.804704 0
M  V30 19 C 9.817922 6.813054 -7.503723 0
M  V30 20 C 6.897016 3.961560 -14.063938 0
M  V30 21 O 8.319230 3.330714 -17.361863 0
M  V30 22 C 10.517183 7.569255 -8.467693 0
M  V30 23 N 12.143863 9.486283 -2.971543 0
M  V30 24 C 9.972306 7.133593 -6.027311 0
M  V30 25 C 8.829890 5.468962 -9.281812 0
M  V30 26 C 10.374318 7.272582 -9.832410 0
M  V30 27 C 9.526105 6.227218 -10.242453 0
M  V30 28 C 12.392330 8.233326 -2.435670 0
M  V30 29 C 6.975416 5.204067 -16.662136 0
M  V30 30 H 7.442271 6.612902 -11.509193 0
M  V30 31 H 5.766024 5.703310 -13.554902 0
M  V30 32 H 12.073922 7.419788 -6.385018 0
M  V30 33 H 11.727348 5.996840 -5.447383 0
M  V30 34 H 7.702073 7.336779 -13.651800 0
M  V30 35 H 8.752093 5.993583 -14.056717 0
M  V30 36 H 8.432440 5.190225 -7.185028 0
M  V30 37 H 9.933016 6.651224 -12.288166 0
M  V30 38 H 9.772796 4.939883 -11.941003 0
M  V30 39 H 5.741572 7.116785 -19.218093 0
M  V30 40 H 7.140208 5.104064 -18.820258 0
M  V30 41 H 4.781442 8.368622 -17.299889 0
M  V30 42 H 11.381881 10.966712 -5.062324 0
M  V30 43 H 11.118173 9.618304 -6.099218 0
M  V30 44 H 8.155974 2.463739 -14.968338 0
M  V30 45 H 8.975404 3.977227 -14.654480 0
M  V30 46 H 5.211866 7.618385 -14.975341 0
M  V30 47 H 7.110296 3.639367 -13.044332 0
M  V30 48 H 5.985139 3.443621 -14.352331 0
M  V30 49 H 11.163722 8.376508 -8.159984 0
M  V30 50 H 9.375409 6.442677 -5.433127 0
M  V30 51 H 9.558203 8.127749 -5.865265 0
M  V30 52 H 8.176858 4.667700 -9.594735 0
M  V30 53 H 12.737510 8.091609 -1.422110 0
M  V30 END ATOM
M  V30 BEGIN BOND
M  V30 1 1 4 2
M  V30 2 1 6 2
M  V30 3 1 7 3
M  V30 4 1 8 1
M  V30 5 1 8 3
M  V30 6 1 10 1
M  V30 7 1 12 2
M  V30 8 1 13 11
M  V30 9 2 14 11
M  V30 10 1 16 6
M  V30 11 1 17 15
M  V30 12 2 18 7
M  V30 13 1 18 14
M  V30 14 1 19 9
M  V30 15 1 20 3
M  V30 16 1 20 17
M  V30 17 2 21 15
M  V30 18 2 22 19
M  V30 19 2 23 6
M  V30 20 1 24 4
M  V30 21 1 24 19
M  V30 22 2 25 9
M  V30 23 1 26 5
M  V30 24 1 26 22
M  V30 25 1 27 10
M  V30 26 1 27 25
M  V30 27 2 27 26
M  V30 28 2 28 12
M  V30 29 1 28 23
M  V30 30 1 29 7
M  V30 31 2 29 13
M  V30 32 1 29 15
M  V30 33 1 30 1
M  V30 34 1 3 31 CFG=1
M  V30 35 1 32 4
M  V30 36 1 33 4
M  V30 37 1 34 8
M  V30 38 1 35 8
M  V30 39 1 36 9
M  V30 40 1 37 10
M  V30 41 1 38 10
M  V30 42 1 39 11
M  V30 43 1 40 13
M  V30 44 1 41 14
M  V30 45 1 42 16
M  V30 46 1 43 16
M  V30 47 1 44 17
M  V30 48 1 45 17
M  V30 49 1 46 18
M  V30 50 1 47 20
M  V30 51 1 48 20
M  V30 52 1 49 22
M  V30 53 1 50 24
M  V30 54 1 51 24
M  V30 55 1 52 25
M  V30 56 1 53 28
M  V30 END BOND
M  V30 END CTAB
M  END
>  <i_epik_Tot_Q>  (1) 
0

>  <i_epik_Tot_abs_Q>  (1) 
0

>  <i_i_glide_confnum>  (1) 
325

>  <i_i_glide_lignum>  (1) 
126

>  <i_i_glide_posenum>  (1) 
339

>  <i_i_glide_rotatable_bonds>  (1) 
7

>  <i_lp_mmshare_version>  (1) 
72125

>  <i_m_source_file_index>  (1) 
77

>  <i_f3d_flags>  (1) 
0

>  <num_sample>  (1) 
100

>  <b_lp_Chiralities_Consistent>  (1) 
1

>  <r_epik_Charging_Adjusted_Penalty>  (1) 
1.3366453936174523

>  <r_epik_Ionization_Penalty>  (1) 
1.3374163863907844

>  <r_epik_Ionization_Penalty_Charging>  (1) 
0

>  <r_epik_Ionization_Penalty_Neutral>  (1) 
1.3374163863907844

>  <r_epik_State_Penalty>  (1) 
1.3366453936174523

>  <r_glide_ring_energy>  (1) 
0.92034752558819388

>  <r_i_docking_score>  (1) 
-4.6174160691548582

>  <r_i_glide_ecoul>  (1) 
-0.82426454302517127

>  <r_i_glide_eff_state_penalty>  (1) 
1.3366453936174523

>  <r_i_glide_einternal>  (1) 
9.4152814236839095

>  <r_i_glide_emodel>  (1) 
-52.859414147846543

>  <r_i_glide_emodel_strain>  (1) 
1.2934014819679476

>  <r_i_glide_energy>  (1) 
-43.042572226715919

>  <r_i_glide_erotb>  (1) 
0.75709287640511513

>  <r_i_glide_esite>  (1) 
0

>  <r_i_glide_evdw>  (1) 
-42.218307683690746

>  <r_i_glide_gscore>  (1) 
-5.9540614627723105

>  <r_i_glide_gscore_strain>  (1) 
0

>  <r_i_glide_hbond>  (1) 
0

>  <r_i_glide_ligand_efficiency>  (1) 
-0.15922124376396063

>  <r_i_glide_ligand_efficiency_ln>  (1) 
-1.0572711922675406

>  <r_i_glide_ligand_efficiency_sa>  (1) 
-0.48917810622264413

>  <r_i_glide_lipo>  (1) 
-1.9567623723104122

>  <r_i_glide_metal>  (1) 
-0

>  <r_i_glide_rewards>  (1) 
-2.5198369012286994

>  <r_lp_Energy>  (1) 
25.694416999999998

>  <r_lp_tautomer_probability>  (1) 
0.99994999147066566

>  <s_epik_cmdline>  (1) 
J2VwaWtfcHl0aG9uJywgJy1waHQnLCAnMS4wJywgJy1waCcsICc3LjQnLCAnLXRuJywgJzgnLCAnLW1hJywgJzUwMCcsICctaW1hZScsICc8aW5maWxlLm1hZT4nLCAnLW9tYWUnLCAnPG91dGZpbGUubWFlPic=

>  <s_epik_input>  (1) 
W2NIXTFbY0hdW2NIXVtjSF1jKGMxMilDKD1PKVtDSDJdW0NIMl1bQ0BIXTJbQ0gyXVtOSF1bQ0gyXWMoYyhGKVtjSF0zKVtjSF1bY0hdYzNbQ0gyXVtDSDJdbjRjKFtOSDJdKW5bY0hdbjQ=

>  <s_glide_docking_method>  (1) 
confgen

>  <s_i_glide_gridfile>  (1) 
gpcr_drd2_6luq_protein_autoprepared_prepared

>  <s_lp_Force_Field>  (1) 
S-OPLS

>  <s_lp_Variant>  (1) 
DiffSBDD_76-3

>  <s_m_source_file>  (1) 
generated_generic_title2_ligand_DiffSBDD_2026-06-23_prepared.sdf

>  <GenAI_Model>  (1) 
DiffSBDD

>  <Protein>  (1) 
generic_title2

$$$$
DiffSBDD_82
     RDKit          3D

  0  0  0  0  0  0  0  0  0  0999 V3000
M  V30 BEGIN CTAB
M  V30 COUNTS 74 80 0 0 1
M  V30 BEGIN ATOM
M  V30 1 N 7.915491 6.532897 -13.975746 0
M  V30 2 C 8.633958 6.712924 -11.592554 0
M  V30 3 N 6.920215 3.872584 -13.573028 0
M  V30 4 O 9.128871 -0.090539 -18.408651 0
M  V30 5 O 6.855976 1.480607 -18.371417 0
M  V30 6 C 10.624305 7.237094 -8.872986 0
M  V30 7 C 8.959854 5.831746 -10.322816 0 CFG=1
M  V30 8 C 7.954176 5.899282 -12.742245 0
M  V30 9 C 8.429947 4.943589 -16.299495 0
M  V30 10 N 7.403553 5.990210 -16.288031 0
M  V30 11 C 6.903626 1.887889 -16.027481 0
M  V30 12 C 6.869905 6.256196 -14.951465 0 CFG=1
M  V30 13 C 6.727891 2.423131 -13.518237 0
M  V30 14 C 11.344354 7.811713 -10.047408 0
M  V30 15 C 10.548501 7.217542 -6.463335 0
M  V30 16 C 7.539582 3.990211 -11.244074 0
M  V30 17 C 6.376354 5.639078 -17.255072 0
M  V30 18 C 6.978092 7.590340 -14.287577 0 CFG=1
M  V30 19 C 9.424390 6.393755 -6.490425 0
M  V30 20 O 11.076069 7.626035 -5.272349 0
M  V30 21 C 8.438813 0.216534 -17.214370 0
M  V30 22 C 9.500790 6.374816 -8.952202 0
M  V30 23 C 8.895938 5.965187 -7.722462 0
M  V30 24 C 8.782711 2.743087 -17.647013 0
M  V30 25 C 7.007675 4.662890 -18.253439 0
M  V30 26 C 7.764433 1.608191 -17.290513 0 CFG=1
M  V30 27 O 7.575296 0.339863 -14.290856 0
M  V30 28 N 12.216783 8.423216 -7.757542 0
M  V30 29 C 8.361786 4.252227 -17.660102 0 CFG=1
M  V30 30 C 11.125266 7.619646 -7.675498 0
M  V30 31 C 5.638598 7.117792 -14.775712 0
M  V30 32 O 12.085072 9.590225 -6.990168 0
M  V30 33 C 12.319387 8.794205 -9.202434 0
M  V30 34 C 7.537716 1.710829 -14.627283 0 CFG=1
M  V30 35 C 7.729757 4.939336 -10.107022 0
M  V30 36 C 7.478791 4.649243 -12.554954 0
M  V30 37 H 7.979130 7.537897 -11.321979 0
M  V30 38 H 9.539820 7.151035 -12.004085 0
M  V30 39 H 8.543381 0.108537 -19.125473 0
M  V30 40 H 6.240443 0.792159 -18.168363 0
M  V30 41 H 9.769944 5.171146 -10.636228 0
M  V30 42 H 8.282200 4.211970 -15.517515 0
M  V30 43 H 9.414100 5.380011 -16.120740 0
M  V30 44 H 5.997570 1.280693 -16.062217 0
M  V30 45 H 6.575405 2.916438 -16.100185 0
M  V30 46 H 7.050599 2.007012 -12.566352 0
M  V30 47 H 5.665590 2.193034 -13.593812 0
M  V30 48 H 11.893907 7.071294 -10.620905 0
M  V30 49 H 10.689403 8.390462 -10.694203 0
M  V30 50 H 6.575371 3.508797 -11.082691 0
M  V30 51 H 5.538401 5.190598 -16.733933 0
M  V30 52 H 5.997497 6.534402 -17.747988 0
M  V30 53 H 7.466284 8.384975 -14.842560 0
M  V30 54 H 8.968076 6.074797 -5.570573 0
M  V30 55 H 11.779728 8.237803 -5.448601 0
M  V30 56 H 9.146040 0.176738 -16.391441 0
M  V30 57 H 7.700633 -0.565774 -17.028443 0
M  V30 58 H 8.035045 5.328163 -7.712380 0
M  V30 59 H 9.637357 2.650252 -16.975375 0
M  V30 60 H 9.192004 2.522513 -18.633255 0
M  V30 61 H 7.158309 5.151762 -19.216352 0
M  V30 62 H 6.323182 3.839269 -18.430660 0
M  V30 63 H 6.692487 0.016654 -14.181700 0
M  V30 64 H 9.114983 4.760189 -18.265816 0
M  V30 65 H 5.195185 7.637990 -15.622280 0
M  V30 66 H 4.975439 6.814361 -13.979165 0
M  V30 67 H 11.232580 9.943402 -7.203381 0
M  V30 68 H 12.008326 9.827916 -9.357113 0
M  V30 69 H 13.351735 8.714394 -9.545496 0
M  V30 70 H 8.567490 2.070000 -14.624063 0
M  V30 71 H 7.819850 4.248980 -9.283180 0
M  V30 72 H 6.836468 5.541849 -9.933867 0
M  V30 73 H 8.412461 3.334321 -11.325479 0
M  V30 74 H 6.848703 4.289705 -14.490022 0
M  V30 END ATOM
M  V30 BEGIN BOND
M  V30 1 1 7 2
M  V30 2 1 8 1
M  V30 3 1 8 2
M  V30 4 1 10 9
M  V30 5 1 12 1
M  V30 6 1 12 10
M  V30 7 1 13 3
M  V30 8 1 14 6
M  V30 9 1 17 10
M  V30 10 1 18 1
M  V30 11 1 18 12
M  V30 12 1 19 15
M  V30 13 1 20 15
M  V30 14 1 21 4
M  V30 15 2 22 6
M  V30 16 1 22 7
M  V30 17 2 23 19
M  V30 18 1 23 22
M  V30 19 1 25 17
M  V30 20 1 26 5 CFG=3
M  V30 21 1 26 11
M  V30 22 1 26 21
M  V30 23 1 26 24
M  V30 24 1 29 9
M  V30 25 1 29 24
M  V30 26 1 29 25
M  V30 27 1 30 6
M  V30 28 2 30 15
M  V30 29 1 30 28
M  V30 30 1 12 31 CFG=1
M  V30 31 1 31 18
M  V30 32 1 32 28
M  V30 33 1 33 14
M  V30 34 1 33 28
M  V30 35 1 34 11
M  V30 36 1 34 13
M  V30 37 1 34 27
M  V30 38 1 35 7
M  V30 39 1 35 16
M  V30 40 1 36 3
M  V30 41 2 36 8
M  V30 42 1 36 16
M  V30 43 1 37 2
M  V30 44 1 38 2
M  V30 45 1 39 4
M  V30 46 1 40 5
M  V30 47 1 7 41 CFG=3
M  V30 48 1 42 9
M  V30 49 1 43 9
M  V30 50 1 44 11
M  V30 51 1 45 11
M  V30 52 1 46 13
M  V30 53 1 47 13
M  V30 54 1 48 14
M  V30 55 1 49 14
M  V30 56 1 50 16
M  V30 57 1 51 17
M  V30 58 1 52 17
M  V30 59 1 18 53 CFG=3
M  V30 60 1 54 19
M  V30 61 1 55 20
M  V30 62 1 56 21
M  V30 63 1 57 21
M  V30 64 1 58 23
M  V30 65 1 59 24
M  V30 66 1 60 24
M  V30 67 1 61 25
M  V30 68 1 62 25
M  V30 69 1 63 27
M  V30 70 1 29 64 CFG=3
M  V30 71 1 65 31
M  V30 72 1 66 31
M  V30 73 1 67 32
M  V30 74 1 68 33
M  V30 75 1 69 33
M  V30 76 1 34 70 CFG=3
M  V30 77 1 71 35
M  V30 78 1 72 35
M  V30 79 1 73 16
M  V30 80 1 74 3
M  V30 END BOND
M  V30 END CTAB
M  END
>  <i_epik_Tot_Q>  (1) 
0

>  <i_epik_Tot_abs_Q>  (1) 
0

>  <i_i_glide_confnum>  (1) 
1

>  <i_i_glide_lignum>  (1) 
146

>  <i_i_glide_posenum>  (1) 
100

>  <i_i_glide_rotatable_bonds>  (1) 
7

>  <i_lp_mmshare_version>  (1) 
72125

>  <i_m_source_file_index>  (1) 
83

>  <i_f3d_flags>  (1) 
0

>  <num_sample>  (1) 
100

>  <b_lp_Chiralities_Consistent>  (1) 
1

>  <r_epik_Charging_Adjusted_Penalty>  (1) 
8.6093729987814029e-06

>  <r_epik_Ionization_Penalty>  (1) 
4.205837022639483

>  <r_epik_Ionization_Penalty_Charging>  (1) 
8.6093729987814029e-06

>  <r_epik_Ionization_Penalty_Neutral>  (1) 
4.2058284132664845

>  <r_epik_State_Penalty>  (1) 
-0

>  <r_glide_ring_energy>  (1) 
0

>  <r_i_docking_score>  (1) 
-4.6151813891029647

>  <r_i_glide_ecoul>  (1) 
-0.19641107782807143

>  <r_i_glide_eff_state_penalty>  (1) 
-0

>  <r_i_glide_einternal>  (1) 
1.7347956842866123

>  <r_i_glide_emodel>  (1) 
-21.670332476147347

>  <r_i_glide_emodel_strain>  (1) 
5.1843900230416295

>  <r_i_glide_energy>  (1) 
-26.893985437799497

>  <r_i_glide_erotb>  (1) 
0.16415830312656554

>  <r_i_glide_esite>  (1) 
0

>  <r_i_glide_evdw>  (1) 
-26.697574359971426

>  <r_i_glide_gscore>  (1) 
-4.6151813891029647

>  <r_i_glide_gscore_strain>  (1) 
0.29609750576040739

>  <r_i_glide_hbond>  (1) 
0

>  <r_i_glide_ligand_efficiency>  (1) 
-0.12819948303063791

>  <r_i_glide_ligand_efficiency_ln>  (1) 
-1.0069078913105833

>  <r_i_glide_ligand_efficiency_sa>  (1) 
-0.4233053663130677

>  <r_i_glide_lipo>  (1) 
-2.1933591422958094

>  <r_i_glide_metal>  (1) 
-0

>  <r_i_glide_rewards>  (1) 
-1.5177376760213459

>  <r_lp_Energy>  (1) 
33.143476

>  <r_lp_tautomer_probability>  (1) 
1

>  <s_epik_Chemistry_Notes>  (1) 
This compound has an imine and may undergo hydrolysis. This compound has a N-S or N-O group and may undergo hydrolysis at high or low pH.

>  <s_epik_cmdline>  (1) 
J2VwaWtfcHl0aG9uJywgJy1waHQnLCAnMS4wJywgJy1waCcsICc3LjQnLCAnLXRuJywgJzgnLCAnLW1hJywgJzUwMCcsICctaW1hZScsICc8aW5maWxlLm1hZT4nLCAnLW9tYWUnLCAnPG91dGZpbGUubWFlPic=

>  <s_epik_input>  (1) 
W0NIMl0xW0NIMl1OMltDSDJdW0NASF0xW0NIMl1bQ0BAXShbT0hdKShbQ0gyXVtPSF0pW0NIMl1bQ0BIXShbT0hdKVtDSDJdL049QyhcW0NAQEhdM04oQzI0NSlbQ0BASF00W0NIMl01KVtDSDJdW0NIMl1bQ0BASF0oW0NIMl0zKWM2W2NIXVtjSF1jKFtPSF0pYyhjNjcpTihbT0hdKVtDSDJdW0NIMl03

>  <s_glide_docking_method>  (1) 
confgen

>  <s_i_glide_gridfile>  (1) 
gpcr_drd2_6luq_protein_autoprepared_prepared

>  <s_lp_Force_Field>  (1) 
S-OPLS

>  <s_lp_Variant>  (1) 
DiffSBDD_82-1

>  <s_m_source_file>  (1) 
generated_generic_title2_ligand_DiffSBDD_2026-06-23_prepared.sdf

>  <GenAI_Model>  (1) 
DiffSBDD

>  <Protein>  (1) 
generic_title2

$$$$
DiffSBDD_71
     RDKit          3D

  0  0  0  0  0  0  0  0  0  0999 V3000
M  V30 BEGIN CTAB
M  V30 COUNTS 55 57 0 0 1
M  V30 BEGIN ATOM
M  V30 1 C 7.236829 0.116786 -15.290181 0 CFG=2
M  V30 2 O 7.947055 -1.590397 -17.585031 0
M  V30 3 C 9.021308 5.252227 -18.800616 0 CFG=1
M  V30 4 C 9.877008 2.689873 -17.527791 0
M  V30 5 C 8.875515 -0.773692 -16.904138 0
M  V30 6 C 6.096593 5.425024 -12.943878 0
M  V30 7 C 8.099406 2.935762 -19.379801 0
M  V30 8 N 8.175408 0.419848 -16.410557 0
M  V30 9 C 8.795799 4.410004 -11.716604 0
M  V30 10 O 5.775429 4.545207 -10.785031 0
M  V30 11 O 10.283205 5.879133 -18.802305 0
M  V30 12 C 7.664573 1.341443 -17.440475 0
M  V30 13 C 5.772180 -0.109845 -15.728955 0
M  V30 14 C 9.472803 4.014638 -16.836604 0 CFG=2
M  V30 15 C 7.968694 5.329688 -11.207496 0
M  V30 16 C 6.475790 4.517296 -13.851849 0
M  V30 17 C 6.529684 5.477475 -11.528257 0 CFG=1
M  V30 18 C 9.012730 4.094287 -19.838375 0
M  V30 19 O 8.559803 4.811464 -17.559665 0
M  V30 20 O 12.420107 5.822502 -17.934523 0
M  V30 21 C 7.278132 1.110284 -14.121436 0
M  V30 22 C 8.751633 1.993182 -18.332457 0 CFG=2
M  V30 23 C 11.217985 5.590240 -17.831233 0
M  V30 24 C 8.467485 3.407099 -12.735399 0
M  V30 25 C 7.454505 3.436747 -13.665286 0
M  V30 26 O 7.385508 2.393340 -14.559640 0
M  V30 27 C 10.629650 4.965754 -16.557535 0
M  V30 28 O 7.176081 0.752902 -12.946530 0
M  V30 29 H 7.575935 -0.809775 -14.841107 0
M  V30 30 H 7.721413 -2.305106 -17.002395 0
M  V30 31 H 8.302866 6.011155 -19.111786 0
M  V30 32 H 10.279271 2.005058 -16.785038 0
M  V30 33 H 10.725899 2.856127 -18.188784 0
M  V30 34 H 9.322707 -1.336075 -16.082868 0
M  V30 35 H 9.692199 -0.507047 -17.573163 0
M  V30 36 H 5.362310 6.163219 -13.230868 0
M  V30 37 H 7.819781 2.337705 -20.247839 0
M  V30 38 H 7.158236 3.344797 -19.008203 0
M  V30 39 H 9.801787 4.393292 -11.326485 0
M  V30 40 H 5.767719 4.804802 -9.870407 0
M  V30 41 H 6.946958 0.816373 -18.072526 0
M  V30 42 H 7.104614 2.143890 -16.961834 0
M  V30 43 H 5.155989 -0.409691 -14.879464 0
M  V30 44 H 5.324139 0.789213 -16.150856 0
M  V30 45 H 5.688080 -0.903878 -16.469810 0
M  V30 46 H 8.983380 3.774704 -15.897617 0
M  V30 47 H 8.347758 6.004255 -10.452054 0
M  V30 48 H 6.007009 4.580773 -14.821842 0
M  V30 49 H 6.244500 6.471552 -11.185001 0
M  V30 50 H 10.024837 3.747738 -20.046295 0
M  V30 51 H 8.647921 4.508426 -20.778432 0
M  V30 52 H 9.235523 1.201518 -18.903813 0
M  V30 53 H 9.134976 2.558945 -12.785009 0
M  V30 54 H 11.418236 4.448001 -16.011011 0
M  V30 55 H 10.288031 5.778055 -15.916638 0
M  V30 END ATOM
M  V30 BEGIN BOND
M  V30 1 1 5 2
M  V30 2 1 8 1
M  V30 3 1 8 5
M  V30 4 1 11 3
M  V30 5 1 12 8
M  V30 6 1 13 1
M  V30 7 1 14 4
M  V30 8 2 15 9
M  V30 9 2 16 6
M  V30 10 1 17 6
M  V30 11 1 17 10
M  V30 12 1 17 15
M  V30 13 1 18 3
M  V30 14 1 18 7
M  V30 15 1 19 3
M  V30 16 1 19 14
M  V30 17 1 21 1
M  V30 18 1 22 4
M  V30 19 1 22 7
M  V30 20 1 22 12
M  V30 21 1 23 11
M  V30 22 2 23 20
M  V30 23 1 24 9
M  V30 24 1 25 16
M  V30 25 2 25 24
M  V30 26 1 26 21
M  V30 27 1 26 25
M  V30 28 1 27 14
M  V30 29 1 27 23
M  V30 30 2 28 21
M  V30 31 1 1 29 CFG=1
M  V30 32 1 30 2
M  V30 33 1 3 31 CFG=3
M  V30 34 1 32 4
M  V30 35 1 33 4
M  V30 36 1 34 5
M  V30 37 1 35 5
M  V30 38 1 36 6
M  V30 39 1 37 7
M  V30 40 1 38 7
M  V30 41 1 39 9
M  V30 42 1 40 10
M  V30 43 1 41 12
M  V30 44 1 42 12
M  V30 45 1 43 13
M  V30 46 1 44 13
M  V30 47 1 45 13
M  V30 48 1 14 46 CFG=1
M  V30 49 1 47 15
M  V30 50 1 48 16
M  V30 51 1 17 49 CFG=1
M  V30 52 1 50 18
M  V30 53 1 51 18
M  V30 54 1 22 52 CFG=3
M  V30 55 1 53 24
M  V30 56 1 54 27
M  V30 57 1 55 27
M  V30 END BOND
M  V30 END CTAB
M  END
>  <i_epik_Tot_Q>  (1) 
0

>  <i_epik_Tot_abs_Q>  (1) 
0

>  <i_i_glide_confnum>  (1) 
445

>  <i_i_glide_lignum>  (1) 
116

>  <i_i_glide_posenum>  (1) 
333

>  <i_i_glide_rotatable_bonds>  (1) 
9

>  <i_lp_mmshare_version>  (1) 
72125

>  <i_m_source_file_index>  (1) 
72

>  <i_f3d_flags>  (1) 
0

>  <num_sample>  (1) 
100

>  <b_lp_Chiralities_Consistent>  (1) 
1

>  <r_epik_Charging_Adjusted_Penalty>  (1) 
0

>  <r_epik_Ionization_Penalty>  (1) 
0.0080147773199130048

>  <r_epik_Ionization_Penalty_Charging>  (1) 
0

>  <r_epik_Ionization_Penalty_Neutral>  (1) 
0.0080147773199130048

>  <r_epik_State_Penalty>  (1) 
-0

>  <r_glide_ring_energy>  (1) 
0.62074138562282444

>  <r_i_docking_score>  (1) 
-4.6149114021468538

>  <r_i_glide_ecoul>  (1) 
-6.3599951815399578

>  <r_i_glide_eff_state_penalty>  (1) 
-0

>  <r_i_glide_einternal>  (1) 
5.822087994668677

>  <r_i_glide_emodel>  (1) 
-43.936582368162057

>  <r_i_glide_emodel_strain>  (1) 
1.2540169238962449

>  <r_i_glide_energy>  (1) 
-38.705860848342716

>  <r_i_glide_erotb>  (1) 
0.75718691864975285

>  <r_i_glide_esite>  (1) 
-0.0046438619765512305

>  <r_i_glide_evdw>  (1) 
-32.345865666802759

>  <r_i_glide_gscore>  (1) 
-4.6149114021468538

>  <r_i_glide_gscore_strain>  (1) 
0

>  <r_i_glide_hbond>  (1) 
-0.47752132812524606

>  <r_i_glide_ligand_efficiency>  (1) 
-0.16481826436238764

>  <r_i_glide_ligand_efficiency_ln>  (1) 
-1.06525705130209

>  <r_i_glide_ligand_efficiency_sa>  (1) 
-0.5004853239265139

>  <r_i_glide_lipo>  (1) 
-0.99712802374310872

>  <r_i_glide_metal>  (1) 
-0

>  <r_i_glide_rewards>  (1) 
-1.3215125463805686

>  <r_lp_Energy>  (1) 
43.182693999999998

>  <r_lp_tautomer_probability>  (1) 
1

>  <s_epik_Chemistry_Notes>  (1) 
This compound has an ester and may undergo hydrolysis at high or low pH. This compound contains an acetal/aminal-like group ( X-CH(R)-Y where X, Y are N, S, or O) that may be acid/base labile, releasing an aldehyde.

>  <s_epik_cmdline>  (1) 
J2VwaWtfcHl0aG9uJywgJy1waHQnLCAnMS4wJywgJy1waCcsICc3LjQnLCAnLXRuJywgJzgnLCAnLW1hJywgJzUwMCcsICctaW1hZScsICc8aW5maWxlLm1hZT4nLCAnLW9tYWUnLCAnPG91dGZpbGUubWFlPic=

>  <s_epik_input>  (1) 
W09IXVtDQEBIXTFbQ0hdPVtDSF1DKD1bQ0hdW0NIXT1bQ0hdMSlPQyg9TylbQ0BIXShbQ0gzXSlOKFtDSDJdW09IXSlbQ0gyXVtDQEBIXShbQ0gyXVtDSDJdMilbQ0gyXVtDQEhdKE8zKVtDSDJdQyg9TylPW0NAQEhdMjM=

>  <s_glide_docking_method>  (1) 
confgen

>  <s_i_glide_gridfile>  (1) 
gpcr_drd2_6luq_protein_autoprepared_prepared

>  <s_lp_Force_Field>  (1) 
S-OPLS

>  <s_lp_Variant>  (1) 
DiffSBDD_71-2

>  <s_m_source_file>  (1) 
generated_generic_title2_ligand_DiffSBDD_2026-06-23_prepared.sdf

>  <GenAI_Model>  (1) 
DiffSBDD

>  <Protein>  (1) 
generic_title2

$$$$
DiffSBDD_31
     RDKit          3D

  0  0  0  0  0  0  0  0  0  0999 V3000
M  V30 BEGIN CTAB
M  V30 COUNTS 103 109 0 0 1
M  V30 BEGIN ATOM
M  V30 1 C 9.865141 5.782276 -8.804419 0
M  V30 2 C 7.306954 5.377809 -15.381733 0
M  V30 3 C 6.177447 -0.208115 -14.403258 0 CFG=2
M  V30 4 C 10.199839 7.132198 -11.569617 0
M  V30 5 O 9.716762 5.334161 -15.661247 0
M  V30 6 C 11.215601 7.018884 -4.401779 0
M  V30 7 C 8.682829 5.467794 -9.728897 0
M  V30 8 C 7.220368 2.412893 -19.903060 0
M  V30 9 C 10.647308 7.089032 -9.124754 0 CFG=1
M  V30 10 C 9.092016 4.844070 -11.040345 0 CFG=2
M  V30 11 C 12.175116 8.148254 -4.536139 0 CFG=1
M  V30 12 C 9.891586 5.696532 -11.983229 0 CFG=1
M  V30 13 C 7.348556 6.489771 -14.290450 0
M  V30 14 C 5.959038 5.624605 -12.287449 0 CFG=1
M  V30 15 C 11.237584 6.443679 -2.980720 0
M  V30 16 C 8.528065 5.162013 -12.423944 0 CFG=2
M  V30 17 C 9.321614 2.649746 -16.841571 0
M  V30 18 C 12.186638 8.802116 -5.925438 0 CFG=2
M  V30 19 C 7.081952 3.536098 -17.604814 0
M  V30 20 C 7.312989 0.981958 -20.424033 0
M  V30 21 C 4.944855 -0.281729 -15.324324 0
M  V30 22 O 4.951162 -0.394102 -17.722759 0
M  V30 23 O 11.122850 7.190871 -10.478513 0
M  V30 24 N 10.979537 9.407532 -6.517979 0 CFG=2 CHG=1
M  V30 25 C 7.357446 6.089527 -12.782279 0 CFG=1
M  V30 26 C 5.583533 -0.179352 -16.691042 0
M  V30 27 C 8.530754 3.908181 -17.234123 0 CFG=1
M  V30 28 C 10.798763 10.248531 -5.351234 0
M  V30 29 C 7.643507 0.101631 -19.208157 0
M  V30 30 C 6.866871 2.251456 -18.422529 0 CFG=2
M  V30 31 C 9.860306 8.600259 -7.097117 0
M  V30 32 C 7.064307 0.190926 -16.697213 0 CFG=1
M  V30 33 C 5.477590 4.254240 -12.762312 0
M  V30 34 C 9.977055 8.399571 -8.643115 0
M  V30 35 C 11.933645 9.601274 -4.664501 0 CFG=1
M  V30 36 O 6.954338 1.931910 -14.867503 0
M  V30 37 C 9.135714 1.418463 -17.728983 0
M  V30 38 O 5.905925 5.590467 -10.877051 0
M  V30 39 C 7.655158 1.004022 -17.935736 0 CFG=1
M  V30 40 C 8.627411 4.922480 -16.052577 0
M  V30 41 C 5.865547 0.277641 -12.970573 0
M  V30 42 C 11.477932 5.990293 -5.494083 0
M  V30 43 C 7.244861 0.591942 -15.190919 0 CFG=1
M  V30 44 H 10.539527 4.931566 -8.784946 0
M  V30 45 H 9.472124 5.838575 -7.791676 0
M  V30 46 H 6.644812 5.719633 -16.178647 0
M  V30 47 H 6.850187 4.488808 -14.967291 0
M  V30 48 H 6.575224 -1.209749 -14.290262 0
M  V30 49 H 10.675600 7.590355 -12.433049 0
M  V30 50 H 9.307704 7.715823 -11.356410 0
M  V30 51 H 10.227883 7.390617 -4.629119 0
M  V30 52 H 7.979027 4.798762 -9.233252 0
M  V30 53 H 8.175478 6.390260 -9.937374 0
M  V30 54 H 8.182694 2.912149 -20.013527 0
M  V30 55 H 6.485390 3.004662 -20.448724 0
M  V30 56 H 11.573222 7.037640 -8.555971 0
M  V30 57 H 9.447415 3.822965 -10.917914 0
M  V30 58 H 13.099149 7.961035 -3.985106 0
M  V30 59 H 10.761974 5.195539 -12.385022 0
M  V30 60 H 8.175404 7.156940 -14.476137 0
M  V30 61 H 6.478645 7.125764 -14.453213 0
M  V30 62 H 5.221570 6.367561 -12.595617 0
M  V30 63 H 12.042556 5.725316 -2.838616 0
M  V30 64 H 11.376271 7.234953 -2.243610 0
M  V30 65 H 10.284589 5.979131 -2.747412 0
M  V30 66 H 8.562661 4.304547 -13.092202 0
M  V30 67 H 10.386152 2.884432 -16.785042 0
M  V30 68 H 8.975429 2.362504 -15.863857 0
M  V30 69 H 13.091097 9.132850 -6.439674 0
M  V30 70 H 6.583383 4.377069 -18.086390 0
M  V30 71 H 6.575646 3.356518 -16.679335 0
M  V30 72 H 8.057486 0.886745 -21.214955 0
M  V30 73 H 6.352581 0.680574 -20.844064 0
M  V30 74 H 4.386765 -1.208332 -15.224529 0
M  V30 75 H 4.265936 0.553026 -15.165427 0
M  V30 76 H 7.512385 7.026187 -12.248281 0
M  V30 77 H 9.004285 4.356181 -18.106100 0
M  V30 78 H 11.131077 11.190232 -5.705163 0
M  V30 79 H 9.885058 10.389851 -4.784945 0
M  V30 80 H 8.596278 -0.410291 -19.346095 0
M  V30 81 H 6.908994 -0.699560 -19.156698 0
M  V30 82 H 5.800510 2.026193 -18.397354 0
M  V30 83 H 8.948609 9.170171 -6.929793 0
M  V30 84 H 9.685290 7.659117 -6.596308 0
M  V30 85 H 7.553643 -0.781898 -16.765553 0
M  V30 86 H 5.216080 4.259357 -13.817098 0
M  V30 87 H 6.215320 3.477558 -12.567930 0
M  V30 88 H 4.570578 3.990127 -12.226639 0
M  V30 89 H 10.504457 9.240963 -9.092969 0
M  V30 90 H 8.977160 8.444092 -9.070673 0
M  V30 91 H 12.746948 10.247407 -4.362653 0
M  V30 92 H 6.973268 2.012231 -13.925778 0
M  V30 93 H 9.697879 0.579533 -17.314382 0
M  V30 94 H 9.605839 1.637577 -18.687514 0
M  V30 95 H 6.193181 6.428321 -10.514954 0
M  V30 96 H 5.374995 1.248758 -12.971617 0
M  V30 97 H 5.188582 -0.409718 -12.463736 0
M  V30 98 H 6.774066 0.352837 -12.370543 0
M  V30 99 H 12.176222 5.219340 -5.192174 0
M  V30 100 H 10.512710 5.590236 -5.757244 0
M  V30 101 H 11.861056 6.393790 -6.427642 0
M  V30 102 H 8.246296 0.349760 -14.835816 0
M  V30 103 H 11.292387 10.012051 -7.265140 0
M  V30 END ATOM
M  V30 BEGIN BOND
M  V30 1 1 7 1
M  V30 2 1 9 1
M  V30 3 1 10 7
M  V30 4 1 11 6
M  V30 5 1 12 4
M  V30 6 1 12 10
M  V30 7 1 13 2
M  V30 8 1 15 6
M  V30 9 1 16 10
M  V30 10 1 16 12
M  V30 11 1 18 11
M  V30 12 1 20 8
M  V30 13 1 21 3
M  V30 14 1 23 4
M  V30 15 1 23 9
M  V30 16 1 24 18
M  V30 17 1 25 13
M  V30 18 1 25 14
M  V30 19 1 25 16
M  V30 20 1 26 21
M  V30 21 2 26 22
M  V30 22 1 27 17
M  V30 23 1 27 19
M  V30 24 1 28 24
M  V30 25 1 29 20
M  V30 26 1 30 8
M  V30 27 1 30 19
M  V30 28 1 31 24
M  V30 29 1 32 26
M  V30 30 1 33 14
M  V30 31 1 34 9
M  V30 32 1 34 31
M  V30 33 1 35 11
M  V30 34 1 35 18
M  V30 35 1 35 28
M  V30 36 1 37 17
M  V30 37 1 38 14
M  V30 38 1 39 29 CFG=3
M  V30 39 1 39 30
M  V30 40 1 39 32
M  V30 41 1 39 37
M  V30 42 1 40 2
M  V30 43 2 40 5
M  V30 44 1 40 27
M  V30 45 1 41 3
M  V30 46 1 42 6
M  V30 47 1 43 3
M  V30 48 1 43 32
M  V30 49 1 43 36
M  V30 50 1 44 1
M  V30 51 1 45 1
M  V30 52 1 46 2
M  V30 53 1 47 2
M  V30 54 1 3 48 CFG=1
M  V30 55 1 49 4
M  V30 56 1 50 4
M  V30 57 1 51 6
M  V30 58 1 52 7
M  V30 59 1 53 7
M  V30 60 1 54 8
M  V30 61 1 55 8
M  V30 62 1 9 56 CFG=1
M  V30 63 1 10 57 CFG=1
M  V30 64 1 11 58 CFG=1
M  V30 65 1 12 59 CFG=3
M  V30 66 1 60 13
M  V30 67 1 61 13
M  V30 68 1 14 62 CFG=3
M  V30 69 1 63 15
M  V30 70 1 64 15
M  V30 71 1 65 15
M  V30 72 1 16 66 CFG=3
M  V30 73 1 67 17
M  V30 74 1 68 17
M  V30 75 1 18 69 CFG=3
M  V30 76 1 70 19
M  V30 77 1 71 19
M  V30 78 1 72 20
M  V30 79 1 73 20
M  V30 80 1 74 21
M  V30 81 1 75 21
M  V30 82 1 25 76 CFG=1
M  V30 83 1 27 77 CFG=3
M  V30 84 1 78 28
M  V30 85 1 79 28
M  V30 86 1 80 29
M  V30 87 1 81 29
M  V30 88 1 30 82 CFG=3
M  V30 89 1 83 31
M  V30 90 1 84 31
M  V30 91 1 32 85 CFG=1
M  V30 92 1 86 33
M  V30 93 1 87 33
M  V30 94 1 88 33
M  V30 95 1 89 34
M  V30 96 1 90 34
M  V30 97 1 35 91 CFG=1
M  V30 98 1 92 36
M  V30 99 1 93 37
M  V30 100 1 94 37
M  V30 101 1 95 38
M  V30 102 1 96 41
M  V30 103 1 97 41
M  V30 104 1 98 41
M  V30 105 1 99 42
M  V30 106 1 100 42
M  V30 107 1 101 42
M  V30 108 1 43 102 CFG=1
M  V30 109 1 24 103 CFG=3
M  V30 END BOND
M  V30 END CTAB
M  END
>  <i_epik_Tot_Q>  (1) 
1

>  <i_epik_Tot_abs_Q>  (1) 
1

>  <i_i_glide_confnum>  (1) 
2792

>  <i_i_glide_lignum>  (1) 
52

>  <i_i_glide_posenum>  (1) 
23

>  <i_i_glide_rotatable_bonds>  (1) 
13

>  <i_lp_mmshare_version>  (1) 
72125

>  <i_m_source_file_index>  (1) 
32

>  <i_f3d_flags>  (1) 
0

>  <num_sample>  (1) 
100

>  <b_lp_Chiralities_Consistent>  (1) 
1

>  <r_epik_Charging_Adjusted_Penalty>  (1) 
0.00082013732971917403

>  <r_epik_Ionization_Penalty>  (1) 
0.00082046965520535795

>  <r_epik_Ionization_Penalty_Charging>  (1) 
0.00082013732971917403

>  <r_epik_Ionization_Penalty_Neutral>  (1) 
3.3232548618397322e-07

>  <r_epik_State_Penalty>  (1) 
-0

>  <r_glide_ring_energy>  (1) 
0

>  <r_i_docking_score>  (1) 
-4.6121548697061723

>  <r_i_glide_ecoul>  (1) 
-1.993094138219897

>  <r_i_glide_eff_state_penalty>  (1) 
-0

>  <r_i_glide_einternal>  (1) 
15.19679546530142

>  <r_i_glide_emodel>  (1) 
-22.819069218404479

>  <r_i_glide_emodel_strain>  (1) 
7.1111182594751199

>  <r_i_glide_energy>  (1) 
-28.897617431327035

>  <r_i_glide_erotb>  (1) 
0.46956192147436254

>  <r_i_glide_esite>  (1) 
0

>  <r_i_glide_evdw>  (1) 
-26.90452329310714

>  <r_i_glide_gscore>  (1) 
-4.6121548697061723

>  <r_i_glide_gscore_strain>  (1) 
0.77777956486877997

>  <r_i_glide_hbond>  (1) 
-0.16

>  <r_i_glide_ligand_efficiency>  (1) 
-0.10725941557456214

>  <r_i_glide_ligand_efficiency_ln>  (1) 
-0.96869586609138392

>  <r_i_glide_ligand_efficiency_sa>  (1) 
-0.37577242848213471

>  <r_i_glide_lipo>  (1) 
-2.8237349758420391

>  <r_i_glide_metal>  (1) 
-0

>  <r_i_glide_rewards>  (1) 
-1.2315710948189336

>  <r_lp_Energy>  (1) 
61.299568000000001

>  <r_lp_tautomer_probability>  (1) 
1

>  <s_epik_cmdline>  (1) 
J2VwaWtfcHl0aG9uJywgJy1waHQnLCAnMS4wJywgJy1waCcsICc3LjQnLCAnLXRuJywgJzgnLCAnLW1hJywgJzUwMCcsICctaW1hZScsICc8aW5maWxlLm1hZT4nLCAnLW9tYWUnLCAnPG91dGZpbGUubWFlPic=

>  <s_epik_input>  (1) 
W0NIM11bQ0hdKFtDSDNdKVtDQEBIXTFbQ0BASF0oW0NAQEhdMTIpW0NIMl1OMltDSDJdW0NIMl1bQ0BASF0oW0NIMl1bQ0gyXTMpT1tDSDJdW0NAQEhdKFtDQEBIXTM0KVtDQEBIXTRbQ0BIXShbQ0BASF0oW0NIM10pW09IXSlbQ0gyXVtDSDJdQyg9TylbQ0BASF0oW0NIMl1bQ0gyXTUpW0NIMl1bQ0BASF0oW0NIMl1bQ0gyXVtDSDJdNilbQ0BdNTZbQ0BASF0oW0NASF03W09IXSlDKD1PKVtDSDJdW0NAQEhdN1tDSDNd

>  <s_glide_docking_method>  (1) 
confgen

>  <s_i_glide_gridfile>  (1) 
gpcr_drd2_6luq_protein_autoprepared_prepared

>  <s_lp_Force_Field>  (1) 
S-OPLS

>  <s_lp_Variant>  (1) 
DiffSBDD_31-1

>  <s_m_source_file>  (1) 
generated_generic_title2_ligand_DiffSBDD_2026-06-23_prepared.sdf

>  <GenAI_Model>  (1) 
DiffSBDD

>  <Protein>  (1) 
generic_title2

$$$$
DiffSBDD_66
     RDKit          3D

  0  0  0  0  0  0  0  0  0  0999 V3000
M  V30 BEGIN CTAB
M  V30 COUNTS 37 39 0 0 1
M  V30 BEGIN ATOM
M  V30 1 F 9.212706 8.790713 -7.933333 0
M  V30 2 C 9.711606 5.972672 -7.630258 0
M  V30 3 N 6.591666 6.409325 -14.082274 0
M  V30 4 C 10.575227 6.950858 -8.501279 0 CFG=2
M  V30 5 C 10.477944 8.412338 -8.074030 0
M  V30 6 C 8.041025 4.986512 -10.539761 0
M  V30 7 N 8.814307 5.192979 -8.161077 0
M  V30 8 F 11.102044 8.571064 -6.905828 0
M  V30 9 C 7.858493 7.458219 -12.365711 0 CFG=1
M  V30 10 C 10.117678 7.096551 -11.049521 0
M  V30 11 O 6.122555 7.768760 -15.989697 0
M  V30 12 C 9.138002 6.593246 -12.164251 0 CFG=1
M  V30 13 C 7.205792 5.736519 -15.215716 0 CFG=2
M  V30 14 C 8.738120 5.126835 -11.900948 0
M  V30 15 F 11.090456 9.184711 -8.973179 0
M  V30 16 C 5.925266 6.504780 -15.387230 0 CFG=1
M  V30 17 C 9.801936 6.508920 -9.679336 0
M  V30 18 O 8.069451 8.789943 -11.985437 0
M  V30 19 N 7.375440 7.555815 -13.741542 0
M  V30 20 O 6.975536 4.352999 -15.084232 0
M  V30 21 C 8.907091 5.592034 -9.465176 0
M  V30 22 H 9.914241 5.988944 -6.556445 0
M  V30 23 H 11.607067 6.621084 -8.559663 0
M  V30 24 H 7.849275 3.951792 -10.350555 0
M  V30 25 H 7.063717 5.466015 -10.513957 0
M  V30 26 H 7.032121 7.133440 -11.735890 0
M  V30 27 H 11.131065 6.790230 -11.305930 0
M  V30 28 H 10.170369 8.181049 -10.996424 0
M  V30 29 H 6.802158 8.204455 -15.497927 0
M  V30 30 H 9.697605 6.607677 -13.097442 0
M  V30 31 H 8.161806 6.053999 -15.628259 0
M  V30 32 H 8.092906 4.739100 -12.684593 0
M  V30 33 H 9.632004 4.500468 -11.915922 0
M  V30 34 H 4.987400 5.993234 -15.600073 0
M  V30 35 H 7.777355 8.846701 -11.079994 0
M  V30 36 H 6.795902 8.390233 -13.798778 0
M  V30 37 H 7.802086 3.924437 -14.924787 0
M  V30 END ATOM
M  V30 BEGIN BOND
M  V30 1 1 4 2
M  V30 2 1 5 1
M  V30 3 1 5 4
M  V30 4 2 7 2
M  V30 5 1 8 5
M  V30 6 1 12 9
M  V30 7 1 12 10
M  V30 8 1 13 3
M  V30 9 1 14 6
M  V30 10 1 14 12
M  V30 11 1 15 5
M  V30 12 1 16 3
M  V30 13 1 16 11
M  V30 14 1 16 13
M  V30 15 1 17 4
M  V30 16 1 17 10
M  V30 17 1 18 9
M  V30 18 1 19 3
M  V30 19 1 19 9
M  V30 20 1 20 13
M  V30 21 1 21 6
M  V30 22 1 21 7
M  V30 23 2 21 17
M  V30 24 1 22 2
M  V30 25 1 4 23 CFG=3
M  V30 26 1 24 6
M  V30 27 1 25 6
M  V30 28 1 9 26 CFG=1
M  V30 29 1 27 10
M  V30 30 1 28 10
M  V30 31 1 29 11
M  V30 32 1 12 30 CFG=3
M  V30 33 1 13 31 CFG=3
M  V30 34 1 32 14
M  V30 35 1 33 14
M  V30 36 1 16 34 CFG=1
M  V30 37 1 35 18
M  V30 38 1 36 19
M  V30 39 1 37 20
M  V30 END BOND
M  V30 END CTAB
M  END
>  <i_epik_Tot_Q>  (1) 
0

>  <i_epik_Tot_abs_Q>  (1) 
0

>  <i_i_glide_confnum>  (1) 
27

>  <i_i_glide_lignum>  (1) 
108

>  <i_i_glide_posenum>  (1) 
392

>  <i_i_glide_rotatable_bonds>  (1) 
7

>  <i_lp_mmshare_version>  (1) 
72125

>  <i_m_source_file_index>  (1) 
67

>  <i_f3d_flags>  (1) 
0

>  <num_sample>  (1) 
100

>  <b_lp_Chiralities_Consistent>  (1) 
1

>  <r_epik_Charging_Adjusted_Penalty>  (1) 
0

>  <r_epik_Ionization_Penalty>  (1) 
9.0569377288722374e-07

>  <r_epik_Ionization_Penalty_Charging>  (1) 
0

>  <r_epik_Ionization_Penalty_Neutral>  (1) 
9.0569377288722374e-07

>  <r_epik_State_Penalty>  (1) 
-0

>  <r_glide_ring_energy>  (1) 
1.8196566873674958

>  <r_i_docking_score>  (1) 
-4.6066750831580654

>  <r_i_glide_ecoul>  (1) 
-2.8123600608366126

>  <r_i_glide_eff_state_penalty>  (1) 
-0

>  <r_i_glide_einternal>  (1) 
1.4878450267101098

>  <r_i_glide_emodel>  (1) 
-38.385156228862101

>  <r_i_glide_emodel_strain>  (1) 
0.25390296087421405

>  <r_i_glide_energy>  (1) 
-29.885055451852203

>  <r_i_glide_erotb>  (1) 
0.58731731641866725

>  <r_i_glide_esite>  (1) 
-0.17676693688853337

>  <r_i_glide_evdw>  (1) 
-27.072695391015589

>  <r_i_glide_gscore>  (1) 
-4.6066750831580654

>  <r_i_glide_gscore_strain>  (1) 
0

>  <r_i_glide_hbond>  (1) 
-0.13706573029124633

>  <r_i_glide_ligand_efficiency>  (1) 
-0.21936548015038407

>  <r_i_glide_ligand_efficiency_ln>  (1) 
-1.1389911056473374

>  <r_i_glide_ligand_efficiency_sa>  (1) 
-0.60521272665034753

>  <r_i_glide_lipo>  (1) 
-0.13354098217457458

>  <r_i_glide_metal>  (1) 
-0

>  <r_i_glide_rewards>  (1) 
-2.971129971546107

>  <r_lp_Energy>  (1) 
5.5804089999999995

>  <r_lp_tautomer_probability>  (1) 
1

>  <s_epik_Chemistry_Notes>  (1) 
This compound has an imine and may undergo hydrolysis. This compound contains an acetal/aminal-like group ( X-CH(R)-Y where X, Y are N, S, or O) that may be acid/base labile, releasing an aldehyde.

>  <s_epik_cmdline>  (1) 
J2VwaWtfcHl0aG9uJywgJy1waHQnLCAnMS4wJywgJy1waCcsICc3LjQnLCAnLXRuJywgJzgnLCAnLW1hJywgJzUwMCcsICctaW1hZScsICc8aW5maWxlLm1hZT4nLCAnLW9tYWUnLCAnPG91dGZpbGUubWFlPic=

>  <s_epik_input>  (1) 
RkMoRikoRilbQ0BIXTFbQ0hdPU5DKD1DMTIpW0NIMl1bQ0gyXVtDQEhdKFtDSDJdMilbQ0BASF0oW09IXSlbTkhdTjNbQ0BASF0oW09IXSlbQ0hdM1tPSF0=

>  <s_glide_docking_method>  (1) 
confgen

>  <s_i_glide_gridfile>  (1) 
gpcr_drd2_6luq_protein_autoprepared_prepared

>  <s_lp_Force_Field>  (1) 
S-OPLS

>  <s_lp_Variant>  (1) 
DiffSBDD_66-1

>  <s_m_source_file>  (1) 
generated_generic_title2_ligand_DiffSBDD_2026-06-23_prepared.sdf

>  <GenAI_Model>  (1) 
DiffSBDD

>  <Protein>  (1) 
generic_title2

$$$$
DiffSBDD_76
     RDKit          3D

  0  0  0  0  0  0  0  0  0  0999 V3000
M  V30 BEGIN CTAB
M  V30 COUNTS 53 56 0 0 1
M  V30 BEGIN ATOM
M  V30 1 N 8.673797 5.949892 -12.594657 0
M  V30 2 N 11.701327 7.412910 -4.385044 0
M  V30 3 C 6.262967 5.629296 -13.130308 0 CFG=1
M  V30 4 C 11.375371 6.651108 -5.590780 0
M  V30 5 F 8.975922 4.484014 -10.305419 0
M  V30 6 C 11.874601 8.708856 -4.212697 0
M  V30 7 C 6.654494 4.232360 -13.610922 0
M  V30 8 C 7.310536 6.288439 -12.196848 0
M  V30 9 C 10.227272 7.949125 -8.343162 0
M  V30 10 C 9.703725 6.747760 -11.945354 0
M  V30 11 C 7.373493 1.638088 -14.470033 0
M  V30 12 N 11.889295 6.790227 -3.208002 0
M  V30 13 C 7.554100 2.734692 -15.333881 0
M  V30 14 C 6.836464 1.833225 -13.185025 0
M  V30 15 C 7.394229 5.190226 -15.854324 0
M  V30 16 N 11.734148 9.563079 -5.294285 0
M  V30 17 C 6.974411 6.572323 -15.342510 0
M  V30 18 C 6.478608 3.126440 -12.756079 0
M  V30 19 C 9.855464 6.813575 -7.597085 0
M  V30 20 C 5.863687 6.519682 -14.304146 0
M  V30 21 O 7.865321 5.072787 -16.984942 0
M  V30 22 C 9.427082 5.645251 -8.261798 0
M  V30 23 N 12.175410 9.084577 -2.992679 0
M  V30 24 C 9.927947 6.851099 -6.080213 0
M  V30 25 C 10.175456 7.920446 -9.747528 0
M  V30 26 C 9.375413 5.613259 -9.670795 0
M  V30 27 C 9.749147 6.758818 -10.418396 0
M  V30 28 C 12.183523 7.831946 -2.397862 0
M  V30 29 C 7.197006 4.036208 -14.914122 0
M  V30 30 H 8.842873 4.964893 -12.433610 0
M  V30 31 H 5.360888 5.511318 -12.529504 0
M  V30 32 H 12.057386 6.964530 -6.381486 0
M  V30 33 H 11.587618 5.593329 -5.429896 0
M  V30 34 H 7.149863 5.930788 -11.179830 0
M  V30 35 H 7.169359 7.369767 -12.163615 0
M  V30 36 H 10.554767 8.842673 -7.837336 0
M  V30 37 H 9.594255 7.775415 -12.293612 0
M  V30 38 H 10.672295 6.404782 -12.310840 0
M  V30 39 H 7.646999 0.644670 -14.794707 0
M  V30 40 H 7.966260 2.578148 -16.320658 0
M  V30 41 H 6.699269 0.988879 -12.524483 0
M  V30 42 H 11.853158 10.560214 -5.196032 0
M  V30 43 H 11.501495 9.216965 -6.212666 0
M  V30 44 H 7.843203 7.064509 -14.912377 0
M  V30 45 H 6.651901 7.176707 -16.190626 0
M  V30 46 H 6.068810 3.269955 -11.766505 0
M  V30 47 H 4.975410 6.107556 -14.778128 0
M  V30 48 H 5.603212 7.522054 -13.963523 0
M  V30 49 H 9.143236 4.773821 -7.693603 0
M  V30 50 H 9.274006 6.095770 -5.644897 0
M  V30 51 H 9.535267 7.815018 -5.756183 0
M  V30 52 H 10.463873 8.790227 -10.312586 0
M  V30 53 H 12.414216 7.687265 -1.354305 0
M  V30 END ATOM
M  V30 BEGIN BOND
M  V30 1 1 4 2
M  V30 2 1 6 2
M  V30 3 1 7 3
M  V30 4 1 8 1
M  V30 5 1 8 3
M  V30 6 1 10 1
M  V30 7 1 12 2
M  V30 8 1 13 11
M  V30 9 2 14 11
M  V30 10 1 16 6
M  V30 11 1 17 15
M  V30 12 2 18 7
M  V30 13 1 18 14
M  V30 14 1 19 9
M  V30 15 1 20 3
M  V30 16 1 20 17
M  V30 17 2 21 15
M  V30 18 2 22 19
M  V30 19 2 23 6
M  V30 20 1 24 4
M  V30 21 1 24 19
M  V30 22 2 25 9
M  V30 23 1 26 5
M  V30 24 1 26 22
M  V30 25 1 27 10
M  V30 26 1 27 25
M  V30 27 2 27 26
M  V30 28 2 28 12
M  V30 29 1 28 23
M  V30 30 1 29 7
M  V30 31 2 29 13
M  V30 32 1 29 15
M  V30 33 1 30 1
M  V30 34 1 3 31 CFG=1
M  V30 35 1 32 4
M  V30 36 1 33 4
M  V30 37 1 34 8
M  V30 38 1 35 8
M  V30 39 1 36 9
M  V30 40 1 37 10
M  V30 41 1 38 10
M  V30 42 1 39 11
M  V30 43 1 40 13
M  V30 44 1 41 14
M  V30 45 1 42 16
M  V30 46 1 43 16
M  V30 47 1 44 17
M  V30 48 1 45 17
M  V30 49 1 46 18
M  V30 50 1 47 20
M  V30 51 1 48 20
M  V30 52 1 49 22
M  V30 53 1 50 24
M  V30 54 1 51 24
M  V30 55 1 52 25
M  V30 56 1 53 28
M  V30 END BOND
M  V30 END CTAB
M  END
>  <i_epik_Tot_Q>  (1) 
0

>  <i_epik_Tot_abs_Q>  (1) 
0

>  <i_i_glide_confnum>  (1) 
385

>  <i_i_glide_lignum>  (1) 
127

>  <i_i_glide_posenum>  (1) 
379

>  <i_i_glide_rotatable_bonds>  (1) 
7

>  <i_lp_mmshare_version>  (1) 
72125

>  <i_m_source_file_index>  (1) 
77

>  <i_f3d_flags>  (1) 
0

>  <num_sample>  (1) 
100

>  <b_lp_Chiralities_Consistent>  (1) 
1

>  <r_epik_Charging_Adjusted_Penalty>  (1) 
1.3366453936174523

>  <r_epik_Ionization_Penalty>  (1) 
1.3374163863907844

>  <r_epik_Ionization_Penalty_Charging>  (1) 
0

>  <r_epik_Ionization_Penalty_Neutral>  (1) 
1.3374163863907844

>  <r_epik_State_Penalty>  (1) 
1.3366453936174523

>  <r_glide_ring_energy>  (1) 
0.91749952199049678

>  <r_i_docking_score>  (1) 
-4.5976947446925518

>  <r_i_glide_ecoul>  (1) 
1.4100036835778487

>  <r_i_glide_eff_state_penalty>  (1) 
1.3366453936174523

>  <r_i_glide_einternal>  (1) 
7.8457128412547164

>  <r_i_glide_emodel>  (1) 
-55.007904124852082

>  <r_i_glide_emodel_strain>  (1) 
1.5002246868525688

>  <r_i_glide_energy>  (1) 
-44.704740847061409

>  <r_i_glide_erotb>  (1) 
0.75709287640511513

>  <r_i_glide_esite>  (1) 
0

>  <r_i_glide_evdw>  (1) 
-46.114744530639257

>  <r_i_glide_gscore>  (1) 
-5.9343401383100041

>  <r_i_glide_gscore_strain>  (1) 
0

>  <r_i_glide_hbond>  (1) 
0

>  <r_i_glide_ligand_efficiency>  (1) 
-0.15854119809284661

>  <r_i_glide_ligand_efficiency_ln>  (1) 
-1.0527555090553118

>  <r_i_glide_ligand_efficiency_sa>  (1) 
-0.48708879046504566

>  <r_i_glide_lipo>  (1) 
-1.6720468152763939

>  <r_i_glide_metal>  (1) 
-0

>  <r_i_glide_rewards>  (1) 
-2.9251495254434388

>  <r_lp_Energy>  (1) 
25.916193

>  <r_lp_tautomer_probability>  (1) 
0.99994999147066566

>  <s_epik_cmdline>  (1) 
J2VwaWtfcHl0aG9uJywgJy1waHQnLCAnMS4wJywgJy1waCcsICc3LjQnLCAnLXRuJywgJzgnLCAnLW1hJywgJzUwMCcsICctaW1hZScsICc8aW5maWxlLm1hZT4nLCAnLW9tYWUnLCAnPG91dGZpbGUubWFlPic=

>  <s_epik_input>  (1) 
W2NIXTFbY0hdW2NIXVtjSF1jKGMxMilDKD1PKVtDSDJdW0NIMl1bQ0BIXTJbQ0gyXVtOSF1bQ0gyXWMoYyhGKVtjSF0zKVtjSF1bY0hdYzNbQ0gyXVtDSDJdbjRjKFtOSDJdKW5bY0hdbjQ=

>  <s_glide_docking_method>  (1) 
confgen

>  <s_i_glide_gridfile>  (1) 
gpcr_drd2_6luq_protein_autoprepared_prepared

>  <s_lp_Force_Field>  (1) 
S-OPLS

>  <s_lp_Variant>  (1) 
DiffSBDD_76-4

>  <s_m_source_file>  (1) 
generated_generic_title2_ligand_DiffSBDD_2026-06-23_prepared.sdf

>  <GenAI_Model>  (1) 
DiffSBDD

>  <Protein>  (1) 
generic_title2

$$$$
DiffSBDD_1
     RDKit          3D

  0  0  0  0  0  0  0  0  0  0999 V3000
M  V30 BEGIN CTAB
M  V30 COUNTS 73 75 0 0 1
M  V30 BEGIN ATOM
M  V30 1 F 5.375443 2.384091 -19.348299 0
M  V30 2 C 8.116027 5.190914 -9.844704 0
M  V30 3 C 5.020767 -0.962605 -17.933089 0
M  V30 4 C 5.960913 1.189488 -19.167214 0
M  V30 5 C 7.911056 4.942662 -14.142551 0 CFG=1
M  V30 6 C 8.884396 -0.491927 -17.840061 0
M  V30 7 F 5.374641 -0.845677 -20.270482 0
M  V30 8 C 10.545736 7.292446 -9.243443 0
M  V30 9 C 7.450151 -0.599724 -17.310864 0 CFG=1
M  V30 10 C 6.346433 -1.633732 -17.461351 0
M  V30 11 C 6.858802 4.885994 -13.003802 0
M  V30 12 C 7.270900 0.220313 -16.015706 0 CFG=1
M  V30 13 C 9.111609 5.060722 -17.055040 0
M  V30 14 O 5.772190 5.990136 -11.184228 0
M  V30 15 C 7.375350 2.505662 -15.088626 0
M  V30 16 C 7.720939 3.986435 -15.368100 0 CFG=2
M  V30 17 C 8.174931 5.865458 -11.012168 0
M  V30 18 C 9.441510 6.570079 -11.474826 0
M  V30 19 N 7.225981 1.142185 -18.958830 0
M  V30 20 C 9.902639 4.587828 -18.285932 0
M  V30 21 O 14.190303 4.982375 -16.132705 0
M  V30 22 O 8.066232 -0.409779 -15.029678 0
M  V30 23 C 11.367785 4.222503 -18.079200 0
M  V30 24 C 5.071426 -0.080462 -19.219940 0 CFG=1
M  V30 25 C 13.475089 3.919491 -16.724177 0
M  V30 26 C 6.963328 5.998163 -11.936817 0 CFG=1
M  V30 27 C 12.016349 4.288014 -16.901746 0
M  V30 28 O 6.926975 2.157015 -13.999049 0
M  V30 29 C 7.765591 -0.176139 -18.755626 0 CFG=1
M  V30 30 O 7.775378 6.249858 -14.666556 0
M  V30 31 C 9.701358 6.421494 -8.294172 0
M  V30 32 N 7.579130 1.646581 -16.101819 0
M  V30 33 C 9.845881 7.726221 -10.543225 0
M  V30 34 C 9.273404 5.062530 -8.874791 0
M  V30 35 O 8.906259 3.963662 -16.173410 0
M  V30 36 H 7.192168 4.713704 -9.551499 0
M  V30 37 H 4.284741 -1.752061 -18.090670 0
M  V30 38 H 4.608037 -0.363036 -17.122003 0
M  V30 39 H 8.911806 4.815483 -13.728534 0
M  V30 40 H 9.507792 0.338030 -17.512822 0
M  V30 41 H 9.415341 -1.430468 -17.978489 0
M  V30 42 H 10.836831 8.192903 -8.702524 0
M  V30 43 H 11.479924 6.790249 -9.483961 0
M  V30 44 H 6.656932 -2.406443 -18.165975 0
M  V30 45 H 6.174791 -2.137826 -16.511598 0
M  V30 46 H 5.865618 4.917126 -13.454806 0
M  V30 47 H 6.919435 3.944913 -12.461756 0
M  V30 48 H 6.236781 0.139462 -15.679484 0
M  V30 49 H 9.624213 5.879102 -16.548269 0
M  V30 50 H 8.154628 5.452339 -17.403149 0
M  V30 51 H 5.921799 6.597501 -10.462200 0
M  V30 52 H 6.879193 4.338965 -15.965975 0
M  V30 53 H 10.244749 5.842484 -11.583029 0
M  V30 54 H 9.279798 6.973026 -12.473422 0
M  V30 55 H 9.878471 5.376444 -19.038520 0
M  V30 56 H 9.397482 3.728702 -18.729521 0
M  V30 57 H 13.872569 5.104977 -15.250337 0
M  V30 58 H 7.857706 -1.343011 -15.019588 0
M  V30 59 H 11.902541 3.890667 -18.957234 0
M  V30 60 H 4.055143 0.257480 -19.425914 0
M  V30 61 H 13.926678 3.675288 -17.686195 0
M  V30 62 H 13.556375 3.034269 -16.094097 0
M  V30 63 H 6.985581 6.987606 -12.394486 0
M  V30 64 H 11.493057 4.616449 -16.015667 0
M  V30 65 H 7.666602 -0.842204 -19.612173 0
M  V30 66 H 8.458870 6.384369 -15.304237 0
M  V30 67 H 8.818293 6.973346 -7.968231 0
M  V30 68 H 10.285859 6.239057 -7.391937 0
M  V30 69 H 7.948761 1.996887 -16.974976 0
M  V30 70 H 8.975515 8.342809 -10.316213 0
M  V30 71 H 10.529765 8.376416 -11.086717 0
M  V30 72 H 8.936865 4.421052 -8.059636 0
M  V30 73 H 10.108256 4.545567 -9.342489 0
M  V30 END ATOM
M  V30 BEGIN BOND
M  V30 1 1 4 1
M  V30 2 1 9 6 CFG=1
M  V30 3 1 10 3
M  V30 4 1 10 9
M  V30 5 1 11 5
M  V30 6 1 12 9
M  V30 7 1 16 5
M  V30 8 1 16 15
M  V30 9 2 17 2
M  V30 10 1 18 17
M  V30 11 2 19 4
M  V30 12 1 20 13
M  V30 13 1 22 12
M  V30 14 1 23 20
M  V30 15 1 24 3
M  V30 16 1 24 4
M  V30 17 1 24 7
M  V30 18 1 25 21
M  V30 19 1 26 11
M  V30 20 1 26 14
M  V30 21 1 26 17
M  V30 22 2 27 23
M  V30 23 1 27 25
M  V30 24 2 28 15
M  V30 25 1 29 6
M  V30 26 1 29 9
M  V30 27 1 29 19
M  V30 28 1 30 5
M  V30 29 1 31 8
M  V30 30 1 32 12
M  V30 31 1 32 15
M  V30 32 1 33 8
M  V30 33 1 33 18
M  V30 34 1 34 2
M  V30 35 1 34 31
M  V30 36 1 35 13
M  V30 37 1 35 16
M  V30 38 1 36 2
M  V30 39 1 37 3
M  V30 40 1 38 3
M  V30 41 1 5 39 CFG=1
M  V30 42 1 40 6
M  V30 43 1 41 6
M  V30 44 1 42 8
M  V30 45 1 43 8
M  V30 46 1 44 10
M  V30 47 1 45 10
M  V30 48 1 46 11
M  V30 49 1 47 11
M  V30 50 1 12 48 CFG=1
M  V30 51 1 49 13
M  V30 52 1 50 13
M  V30 53 1 51 14
M  V30 54 1 16 52 CFG=3
M  V30 55 1 53 18
M  V30 56 1 54 18
M  V30 57 1 55 20
M  V30 58 1 56 20
M  V30 59 1 57 21
M  V30 60 1 58 22
M  V30 61 1 59 23
M  V30 62 1 24 60 CFG=3
M  V30 63 1 61 25
M  V30 64 1 62 25
M  V30 65 1 26 63 CFG=3
M  V30 66 1 64 27
M  V30 67 1 29 65 CFG=3
M  V30 68 1 66 30
M  V30 69 1 67 31
M  V30 70 1 68 31
M  V30 71 1 69 32
M  V30 72 1 70 33
M  V30 73 1 71 33
M  V30 74 1 72 34
M  V30 75 1 73 34
M  V30 END BOND
M  V30 END CTAB
M  END
>  <i_epik_Tot_Q>  (1) 
0

>  <i_epik_Tot_abs_Q>  (1) 
0

>  <i_i_glide_confnum>  (1) 
2648

>  <i_i_glide_lignum>  (1) 
3

>  <i_i_glide_posenum>  (1) 
302

>  <i_i_glide_rotatable_bonds>  (1) 
17

>  <i_lp_mmshare_version>  (1) 
72125

>  <i_m_source_file_index>  (1) 
2

>  <i_f3d_flags>  (1) 
0

>  <num_sample>  (1) 
100

>  <b_lp_Chiralities_Consistent>  (1) 
1

>  <r_epik_Charging_Adjusted_Penalty>  (1) 
0

>  <r_epik_Ionization_Penalty>  (1) 
3.3646854675809213e-05

>  <r_epik_Ionization_Penalty_Charging>  (1) 
0

>  <r_epik_Ionization_Penalty_Neutral>  (1) 
3.3646854675809213e-05

>  <r_epik_State_Penalty>  (1) 
-0

>  <r_glide_ring_energy>  (1) 
0.00077298911874713633

>  <r_i_docking_score>  (1) 
-4.590988881496477

>  <r_i_glide_ecoul>  (1) 
-8.4027164413752526

>  <r_i_glide_eff_state_penalty>  (1) 
-0

>  <r_i_glide_einternal>  (1) 
11.619798524406335

>  <r_i_glide_emodel>  (1) 
-47.436366340522504

>  <r_i_glide_emodel_strain>  (1) 
0.60574853192102296

>  <r_i_glide_energy>  (1) 
-42.787986445378642

>  <r_i_glide_erotb>  (1) 
0.89639897310018468

>  <r_i_glide_esite>  (1) 
-0.014767988124381407

>  <r_i_glide_evdw>  (1) 
-34.385270004003388

>  <r_i_glide_gscore>  (1) 
-4.590988881496477

>  <r_i_glide_gscore_strain>  (1) 
0

>  <r_i_glide_hbond>  (1) 
-0.45599999999999996

>  <r_i_glide_ligand_efficiency>  (1) 
-0.13117111089989933

>  <r_i_glide_ligand_efficiency_ln>  (1) 
-1.0078239509969324

>  <r_i_glide_ligand_efficiency_sa>  (1) 
-0.42906940173467212

>  <r_i_glide_lipo>  (1) 
-0.83738568759007603

>  <r_i_glide_metal>  (1) 
-0

>  <r_i_glide_rewards>  (1) 
-1.1995632124757467

>  <r_lp_Energy>  (1) 
36.910070999999995

>  <r_lp_tautomer_probability>  (1) 
1

>  <s_epik_Chemistry_Notes>  (1) 
This compound has an imine and may undergo hydrolysis. This compound contains an acetal/aminal-like group ( X-CH(R)-Y where X, Y are N, S, or O) that may be acid/base labile, releasing an aldehyde.

>  <s_epik_cmdline>  (1) 
J2VwaWtfcHl0aG9uJywgJy1waHQnLCAnMS4wJywgJy1waCcsICc3LjQnLCAnLXRuJywgJzgnLCAnLW1hJywgJzUwMCcsICctaW1hZScsICc8aW5maWxlLm1hZT4nLCAnLW9tYWUnLCAnPG91dGZpbGUubWFlPic=

>  <s_epik_input>  (1) 
W0NIMl0xW0NIMl1bQ0BIXShGKUMoRik9TltDQEBIXShbQ0gyXTIpQzEyW0NAQEhdKFtPSF0pW05IXUMoPU8pW0NASF0oT1tDSDJdW0NIMl0vW0NIXT1bQ0hdL1tDSDJdW09IXSlbQ0BASF0oW09IXSlbQ0gyXVtDQEBIXShbT0hdKUMzPVtDSF1bQ0gyXVtDSDJdW0NIMl1bQ0gyXVtDSDJdMw==

>  <s_glide_docking_method>  (1) 
confgen

>  <s_i_glide_gridfile>  (1) 
gpcr_drd2_6luq_protein_autoprepared_prepared

>  <s_lp_Force_Field>  (1) 
S-OPLS

>  <s_lp_Variant>  (1) 
DiffSBDD_1-2

>  <s_m_source_file>  (1) 
generated_generic_title2_ligand_DiffSBDD_2026-06-23_prepared.sdf

>  <GenAI_Model>  (1) 
DiffSBDD

>  <Protein>  (1) 
generic_title2

$$$$
DiffSBDD_48
     RDKit          3D

  0  0  0  0  0  0  0  0  0  0999 V3000
M  V30 BEGIN CTAB
M  V30 COUNTS 49 50 0 0 1
M  V30 BEGIN ATOM
M  V30 1 C 8.054261 0.504179 -16.797086 0
M  V30 2 S 10.353630 7.631870 -10.042081 0
M  V30 3 O 8.991781 0.227698 -17.452509 0
M  V30 4 N 11.429762 9.189428 -4.218724 0
M  V30 5 C 8.663505 3.473454 -12.420497 0
M  V30 6 C 7.524715 5.510315 -13.121555 0
M  V30 7 O 11.734700 7.190227 -10.271762 0
M  V30 8 C 6.365052 0.109382 -12.294437 0
M  V30 9 O 6.575414 2.300014 -14.199290 0
M  V30 10 O 9.706864 8.390228 -11.114618 0
M  V30 11 N 9.375409 6.171848 -9.945733 0
M  V30 12 C 9.301826 6.324666 -7.438747 0
M  V30 13 C 7.098376 1.031838 -14.563314 0 CFG=2
M  V30 14 C 9.157009 4.137085 -11.285517 0
M  V30 15 C 12.575387 9.190231 -3.678112 0
M  V30 16 N 10.149453 8.274122 -8.564441 0 CHG=-1
M  V30 17 C 8.849768 5.495021 -11.065747 0
M  V30 18 C 7.333465 3.438829 -14.569195 0
M  V30 19 C 7.010410 0.814929 -16.063613 0
M  V30 20 C 8.020509 6.177824 -11.985034 0
M  V30 21 C 9.390348 5.419517 -8.687664 0
M  V30 22 O 12.189964 9.627682 -6.384996 0
M  V30 23 C 7.852121 4.157855 -13.342690 0
M  V30 24 C 11.375423 9.128915 -5.599212 0
M  V30 25 C 10.150656 8.343752 -6.120962 0
M  V30 26 C 10.347187 7.458763 -7.376517 0 CFG=1
M  V30 27 C 6.252606 -0.009753 -13.816417 0
M  V30 28 H 8.910862 2.434955 -12.584288 0
M  V30 29 H 6.896539 6.037609 -13.823860 0
M  V30 30 H 5.797411 -0.677187 -11.797077 0
M  V30 31 H 5.986774 1.068799 -11.942240 0
M  V30 32 H 7.404208 0.024098 -11.985151 0
M  V30 33 H 8.305565 6.756539 -7.390295 0
M  V30 34 H 9.394785 5.703263 -6.550547 0
M  V30 35 H 8.136201 0.950530 -14.233121 0
M  V30 36 H 9.775405 3.603883 -10.586260 0
M  V30 37 H 12.673498 9.233577 -2.590384 0
M  V30 38 H 13.485951 9.148890 -4.284315 0
M  V30 39 H 8.175484 3.188069 -15.215640 0
M  V30 40 H 6.687066 4.102825 -15.144438 0
M  V30 41 H 6.033198 0.929400 -16.508876 0
M  V30 42 H 7.767376 7.214145 -11.819327 0
M  V30 43 H 10.291249 4.811281 -8.640931 0
M  V30 44 H 8.543833 4.732343 -8.661809 0
M  V30 45 H 9.831519 7.684750 -5.313138 0
M  V30 46 H 9.321848 9.030446 -6.277649 0
M  V30 47 H 11.341801 7.009865 -7.346899 0
M  V30 48 H 5.204939 0.069945 -14.109832 0
M  V30 49 H 6.575407 -1.007251 -14.105595 0
M  V30 END ATOM
M  V30 BEGIN BOND
M  V30 1 2 3 1
M  V30 2 2 7 2
M  V30 3 2 10 2
M  V30 4 1 11 2
M  V30 5 1 13 9
M  V30 6 2 14 5
M  V30 7 2 15 4
M  V30 8 1 16 2
M  V30 9 1 17 11
M  V30 10 1 17 14
M  V30 11 1 18 9
M  V30 12 2 19 1
M  V30 13 1 19 13
M  V30 14 1 20 6
M  V30 15 2 20 17
M  V30 16 1 21 11
M  V30 17 1 21 12
M  V30 18 1 23 5
M  V30 19 2 23 6
M  V30 20 1 23 18
M  V30 21 1 24 4
M  V30 22 2 24 22
M  V30 23 1 25 24
M  V30 24 1 26 12
M  V30 25 1 26 16
M  V30 26 1 26 25
M  V30 27 1 27 8
M  V30 28 1 27 13
M  V30 29 1 28 5
M  V30 30 1 29 6
M  V30 31 1 30 8
M  V30 32 1 31 8
M  V30 33 1 32 8
M  V30 34 1 33 12
M  V30 35 1 34 12
M  V30 36 1 13 35 CFG=1
M  V30 37 1 36 14
M  V30 38 1 37 15
M  V30 39 1 38 15
M  V30 40 1 39 18
M  V30 41 1 40 18
M  V30 42 1 41 19
M  V30 43 1 42 20
M  V30 44 1 43 21
M  V30 45 1 44 21
M  V30 46 1 45 25
M  V30 47 1 46 25
M  V30 48 1 26 47 CFG=3
M  V30 49 1 48 27
M  V30 50 1 49 27
M  V30 END BOND
M  V30 END CTAB
M  END
>  <i_epik_Tot_Q>  (1) 
-1

>  <i_epik_Tot_abs_Q>  (1) 
1

>  <i_i_glide_confnum>  (1) 
92

>  <i_i_glide_lignum>  (1) 
78

>  <i_i_glide_posenum>  (1) 
358

>  <i_i_glide_rotatable_bonds>  (1) 
9

>  <i_lp_mmshare_version>  (1) 
72125

>  <i_m_source_file_index>  (1) 
49

>  <i_f3d_flags>  (1) 
0

>  <num_sample>  (1) 
100

>  <b_lp_Chiralities_Consistent>  (1) 
1

>  <r_epik_Charging_Adjusted_Penalty>  (1) 
1.1273595753974743

>  <r_epik_Ionization_Penalty>  (1) 
0.56367978799068119

>  <r_epik_Ionization_Penalty_Charging>  (1) 
0.56367978769873717

>  <r_epik_Ionization_Penalty_Neutral>  (1) 
2.9194397843885657e-10

>  <r_epik_State_Penalty>  (1) 
0.56367978769873717

>  <r_glide_ring_energy>  (1) 
0

>  <r_i_docking_score>  (1) 
-4.5820790427261837

>  <r_i_glide_ecoul>  (1) 
-2.7480318754410851

>  <r_i_glide_eff_state_penalty>  (1) 
0.56367978769873717

>  <r_i_glide_einternal>  (1) 
7.1397724191113436

>  <r_i_glide_emodel>  (1) 
-50.641226247238635

>  <r_i_glide_emodel_strain>  (1) 
1.5739451257057091

>  <r_i_glide_energy>  (1) 
-44.64032026286025

>  <r_i_glide_erotb>  (1) 
1.0141341284107193

>  <r_i_glide_esite>  (1) 
-0.18292201316438728

>  <r_i_glide_evdw>  (1) 
-41.892288387419164

>  <r_i_glide_gscore>  (1) 
-5.1457588304249207

>  <r_i_glide_gscore_strain>  (1) 
0

>  <r_i_glide_hbond>  (1) 
0

>  <r_i_glide_ligand_efficiency>  (1) 
-0.16970663121208088

>  <r_i_glide_ligand_efficiency_ln>  (1) 
-1.066632459669749

>  <r_i_glide_ligand_efficiency_sa>  (1) 
-0.50911989363624277

>  <r_i_glide_lipo>  (1) 
-1.2851193007879695

>  <r_i_glide_metal>  (1) 
-0

>  <r_i_glide_rewards>  (1) 
-2.1850324441961617

>  <r_lp_Energy>  (1) 
50.405653999999998

>  <s_epik_Chemistry_Notes>  (1) 
This compound has an imine and may undergo hydrolysis.

>  <s_epik_cmdline>  (1) 
J2VwaWtfcHl0aG9uJywgJy1waHQnLCAnMS4wJywgJy1waCcsICc3LjQnLCAnLXRuJywgJzgnLCAnLW1hJywgJzUwMCcsICctaW1hZScsICc8aW5maWxlLm1hZT4nLCAnLW9tYWUnLCAnPG91dGZpbGUubWFlPic=

>  <s_epik_input>  (1) 
Tz1DPVtDSF1bQ0BIXShbQ0gyXVtDSDNdKU9bQ0gyXWMoW2NIXVtjSF0xKVtjSF1bY0hdYzFOKFMyKD1PKT1PKVtDSDJdW0NIMl1bQ0BASF0oW05IXTIpW0NIMl1DKD1PKU49W0NIMl0=

>  <s_glide_docking_method>  (1) 
confgen

>  <s_i_glide_gridfile>  (1) 
gpcr_drd2_6luq_protein_autoprepared_prepared

>  <s_lp_Force_Field>  (1) 
S-OPLS

>  <s_lp_Variant>  (1) 
DiffSBDD_48-2

>  <s_m_source_file>  (1) 
generated_generic_title2_ligand_DiffSBDD_2026-06-23_prepared.sdf

>  <GenAI_Model>  (1) 
DiffSBDD

>  <Protein>  (1) 
generic_title2

$$$$
DiffSBDD_18
     RDKit          3D

  0  0  0  0  0  0  0  0  0  0999 V3000
M  V30 BEGIN CTAB
M  V30 COUNTS 38 39 0 0 1
M  V30 BEGIN ATOM
M  V30 1 C 11.775395 9.128574 -4.102297 0
M  V30 2 C 12.290370 9.032412 -2.799470 0
M  V30 3 O 10.619571 9.190227 -6.689374 0
M  V30 4 S 10.998339 7.679239 -9.363841 0
M  V30 5 C 5.934509 5.958337 -14.162988 0
M  V30 6 C 10.309632 7.190221 -10.971591 0
M  V30 7 N 8.975568 6.833153 -10.914526 0
M  V30 8 C 5.735880 5.698955 -12.658769 0
M  V30 9 C 10.792304 8.088552 -6.183699 0
M  V30 10 C 8.260901 4.943757 -12.444048 0 CFG=2
M  V30 11 C 11.513367 6.698481 -4.176475 0
M  V30 12 C 8.228794 6.408826 -12.049830 0 CFG=1
M  V30 13 N 10.482564 6.933454 -6.801301 0
M  V30 14 C 11.375427 7.963784 -4.797614 0
M  V30 15 C 12.042072 6.609768 -2.871455 0
M  V30 16 C 12.427951 7.775988 -2.185361 0
M  V30 17 O 11.008038 7.188157 -11.981964 0
M  V30 18 C 9.885020 6.893708 -8.142887 0
M  V30 19 C 7.007344 5.535904 -11.840329 0 CFG=1
M  V30 20 O 8.975409 4.108052 -11.559003 0
M  V30 21 H 11.670214 10.098251 -4.567080 0
M  V30 22 H 12.575406 9.925976 -2.269210 0
M  V30 23 H 4.975402 6.048587 -14.667110 0
M  V30 24 H 6.480970 6.882489 -14.348871 0
M  V30 25 H 6.463574 5.140871 -14.651535 0
M  V30 26 H 8.505580 6.915799 -10.017634 0
M  V30 27 H 5.135700 4.798105 -12.526886 0
M  V30 28 H 5.165157 6.518677 -12.221461 0
M  V30 29 H 8.330677 4.668946 -13.493823 0
M  V30 30 H 11.212024 5.799708 -4.691211 0
M  V30 31 H 8.184842 7.124950 -12.867405 0
M  V30 32 H 10.647858 6.058011 -6.329093 0
M  V30 33 H 12.146187 5.645024 -2.395999 0
M  V30 34 H 12.827663 7.706596 -1.185039 0
M  V30 35 H 8.928320 7.411684 -8.128901 0
M  V30 36 H 9.703745 5.853537 -8.415706 0
M  V30 37 H 6.801495 5.272763 -10.803347 0
M  V30 38 H 9.886494 4.119806 -11.813337 0
M  V30 END ATOM
M  V30 BEGIN BOND
M  V30 1 1 2 1
M  V30 2 1 6 4
M  V30 3 1 7 6
M  V30 4 1 8 5
M  V30 5 2 9 3
M  V30 6 1 12 7
M  V30 7 1 12 10
M  V30 8 1 13 9
M  V30 9 2 14 1
M  V30 10 1 14 9
M  V30 11 1 14 11
M  V30 12 2 15 11
M  V30 13 2 16 2
M  V30 14 1 16 15
M  V30 15 2 17 6
M  V30 16 1 18 4
M  V30 17 1 18 13
M  V30 18 1 19 8
M  V30 19 1 19 10
M  V30 20 1 19 12
M  V30 21 1 20 10
M  V30 22 1 21 1
M  V30 23 1 22 2
M  V30 24 1 23 5
M  V30 25 1 24 5
M  V30 26 1 25 5
M  V30 27 1 26 7
M  V30 28 1 27 8
M  V30 29 1 28 8
M  V30 30 1 10 29 CFG=3
M  V30 31 1 30 11
M  V30 32 1 12 31 CFG=3
M  V30 33 1 32 13
M  V30 34 1 33 15
M  V30 35 1 34 16
M  V30 36 1 35 18
M  V30 37 1 36 18
M  V30 38 1 19 37 CFG=1
M  V30 39 1 38 20
M  V30 END BOND
M  V30 END CTAB
M  END
>  <i_epik_Tot_Q>  (1) 
0

>  <i_epik_Tot_abs_Q>  (1) 
0

>  <i_i_glide_confnum>  (1) 
26

>  <i_i_glide_lignum>  (1) 
35

>  <i_i_glide_posenum>  (1) 
39

>  <i_i_glide_rotatable_bonds>  (1) 
9

>  <i_lp_mmshare_version>  (1) 
72125

>  <i_m_source_file_index>  (1) 
19

>  <i_f3d_flags>  (1) 
0

>  <num_sample>  (1) 
100

>  <b_lp_Chiralities_Consistent>  (1) 
1

>  <r_epik_Charging_Adjusted_Penalty>  (1) 
0

>  <r_epik_Ionization_Penalty>  (1) 
2.0525633642560989e-05

>  <r_epik_Ionization_Penalty_Charging>  (1) 
0

>  <r_epik_Ionization_Penalty_Neutral>  (1) 
2.0525633642560989e-05

>  <r_epik_State_Penalty>  (1) 
-0

>  <r_glide_ring_energy>  (1) 
0

>  <r_i_docking_score>  (1) 
-4.5767667050473895

>  <r_i_glide_ecoul>  (1) 
-6.5568691874140299

>  <r_i_glide_eff_state_penalty>  (1) 
-0

>  <r_i_glide_einternal>  (1) 
6.459385666476658

>  <r_i_glide_emodel>  (1) 
-49.89883725884286

>  <r_i_glide_emodel_strain>  (1) 
0.98644872421763807

>  <r_i_glide_energy>  (1) 
-40.727146971493674

>  <r_i_glide_erotb>  (1) 
2.5324251451788915

>  <r_i_glide_esite>  (1) 
-0.13080379024999067

>  <r_i_glide_evdw>  (1) 
-34.170277784079644

>  <r_i_glide_gscore>  (1) 
-4.5767667050473895

>  <r_i_glide_gscore_strain>  (1) 
0

>  <r_i_glide_hbond>  (1) 
-0.10940663850714492

>  <r_i_glide_ligand_efficiency>  (1) 
-0.22883833525236946

>  <r_i_glide_ligand_efficiency_ln>  (1) 
-1.1454137544046712

>  <r_i_glide_ligand_efficiency_sa>  (1) 
-0.62116280856128292

>  <r_i_glide_lipo>  (1) 
-2.0053192828394448

>  <r_i_glide_metal>  (1) 
-0

>  <r_i_glide_rewards>  (1) 
-2.1716178713136141

>  <r_lp_Energy>  (1) 
17.985703999999998

>  <r_lp_tautomer_probability>  (1) 
1

>  <s_epik_Chemistry_Notes>  (1) 
This compound contains an acetal/aminal-like group ( X-CH(R)-Y where X, Y are N, S, or O) that may be acid/base labile, releasing an aldehyde.

>  <s_epik_cmdline>  (1) 
J2VwaWtfcHl0aG9uJywgJy1waHQnLCAnMS4wJywgJy1waCcsICc3LjQnLCAnLXRuJywgJzgnLCAnLW1hJywgJzUwMCcsICctaW1hZScsICc8aW5maWxlLm1hZT4nLCAnLW9tYWUnLCAnPG91dGZpbGUubWFlPic=

>  <s_epik_input>  (1) 
W2NIXTFbY0hdW2NIXVtjSF1bY0hdYzFDKD1PKVtOSF1bQ0gyXVNDKD1PKVtOSF1bQ0BASF0oW0NIXTJbT0hdKVtDQEhdMltDSDJdW0NIM10=

>  <s_glide_docking_method>  (1) 
confgen

>  <s_i_glide_gridfile>  (1) 
gpcr_drd2_6luq_protein_autoprepared_prepared

>  <s_lp_Force_Field>  (1) 
S-OPLS

>  <s_lp_Variant>  (1) 
DiffSBDD_18-2

>  <s_m_source_file>  (1) 
generated_generic_title2_ligand_DiffSBDD_2026-06-23_prepared.sdf

>  <GenAI_Model>  (1) 
DiffSBDD

>  <Protein>  (1) 
generic_title2

$$$$
DiffSBDD_86
     RDKit          3D

  0  0  0  0  0  0  0  0  0  0999 V3000
M  V30 BEGIN CTAB
M  V30 COUNTS 113 116 0 0 1
M  V30 BEGIN ATOM
M  V30 1 C 14.805367 2.229841 -17.268865 0
M  V30 2 C 14.835586 3.666123 -16.730580 0 CFG=1
M  V30 3 C 10.264700 6.160418 -7.716572 0
M  V30 4 C 3.121339 6.979147 -16.991457 0
M  V30 5 C 8.089132 3.067933 -18.979586 0 CFG=2
M  V30 6 C 7.815429 3.795027 -12.391496 0
M  V30 7 O 9.915044 1.495358 -18.759244 0
M  V30 8 C 7.865990 0.864799 -17.667125 0 CFG=2
M  V30 9 O 8.975188 -1.866207 -17.584346 0
M  V30 10 C 9.040644 0.380299 -18.529318 0 CFG=2
M  V30 11 C 7.273587 4.058871 -19.831548 0
M  V30 12 O 16.136462 3.990230 -16.286915 0
M  V30 13 N 8.721344 5.261338 -9.459707 0
M  V30 14 C 10.931053 5.615996 -17.023979 0
M  V30 15 C 12.627677 2.448648 -18.690252 0 CFG=1
M  V30 16 C 7.086977 2.897402 -14.530587 0 CFG=2
M  V30 17 O 13.492132 4.374374 -20.534927 0
M  V30 18 C 5.374873 7.989497 -17.585852 0
M  V30 19 C 9.461543 2.585858 -19.594987 0 CFG=1
M  V30 20 C 9.371040 1.935272 -21.026411 0
M  V30 21 C 11.599608 3.570166 -18.470592 0 CFG=2
M  V30 22 O 11.381948 7.190178 -12.755232 0
M  V30 23 O 6.706384 4.215161 -12.058441 0
M  V30 24 N 9.750162 6.337260 -11.315470 0
M  V30 25 C 10.502106 3.745068 -19.495182 0
M  V30 26 C 7.151189 1.928872 -18.513875 0
M  V30 27 C 11.271892 6.758843 -5.460359 0
M  V30 28 O 8.087006 3.131640 -13.540673 0
M  V30 29 P 13.241587 4.104718 -19.090842 0 CFG=1
M  V30 30 C 5.730091 6.632396 -17.020865 0 CFG=2
M  V30 31 C 14.384294 4.719359 -17.755029 0
M  V30 32 C 9.475262 2.776291 -22.314173 0
M  V30 33 C 4.501942 7.341862 -16.560593 0 CFG=2
M  V30 34 F 12.175355 7.518822 -11.587353 0
M  V30 35 C 6.884655 6.520086 -16.073595 0
M  V30 36 C 10.426800 4.846597 -20.271834 0
M  V30 37 C 11.283771 4.121444 -17.079240 0
M  V30 38 C 9.199422 5.308472 -10.755997 0
M  V30 39 C 13.385511 1.728159 -17.580083 0
M  V30 40 C 7.302129 1.458553 -15.098120 0 CFG=2
M  V30 41 C 9.049099 3.973708 -11.510237 0
M  V30 42 C 8.973062 6.341292 -8.511525 0
M  V30 43 C 9.835672 -0.797886 -17.942764 0
M  V30 44 C 8.333630 1.286438 -16.239981 0
M  V30 45 O 6.094544 0.790166 -15.389978 0
M  V30 46 C 6.744331 5.415036 -15.031191 0
M  V30 47 C 7.180671 4.042448 -15.560926 0
M  V30 48 C 10.445582 7.252280 -6.652009 0
M  V30 49 C 10.480468 6.138717 -12.532344 0
M  V30 50 H 15.245070 1.559486 -16.528557 0
M  V30 51 H 15.427858 2.142192 -18.160243 0
M  V30 52 H 14.196282 3.727463 -15.849192 0
M  V30 53 H 10.217572 5.190234 -7.232192 0
M  V30 54 H 11.122676 6.138826 -8.384940 0
M  V30 55 H 3.101133 6.671497 -18.034954 0
M  V30 56 H 2.705946 6.175397 -16.385023 0
M  V30 57 H 2.542892 7.890204 -16.883095 0
M  V30 58 H 8.351016 3.612437 -18.077471 0
M  V30 59 H 7.174487 0.029349 -17.557032 0
M  V30 60 H 8.575957 -1.698324 -16.741794 0
M  V30 61 H 8.639991 0.000722 -19.467849 0
M  V30 62 H 7.061230 3.664629 -20.822953 0
M  V30 63 H 6.309958 4.268621 -19.367160 0
M  V30 64 H 7.765662 5.021975 -19.935848 0
M  V30 65 H 16.313551 3.473460 -15.514981 0
M  V30 66 H 8.284070 4.440530 -9.072457 0
M  V30 67 H 10.758285 5.929669 -15.994275 0
M  V30 68 H 11.725269 6.243516 -17.426132 0
M  V30 69 H 10.019848 5.825518 -17.583321 0
M  V30 70 H 12.475834 1.828409 -19.572474 0
M  V30 71 H 6.104680 2.913213 -14.056424 0
M  V30 72 H 5.775391 8.912900 -17.184673 0
M  V30 73 H 5.017932 8.033623 -18.613345 0
M  V30 74 H 10.174337 1.200146 -21.102407 0
M  V30 75 H 8.443588 1.369235 -21.109432 0
M  V30 76 H 6.288133 2.318408 -17.977277 0
M  V30 77 H 6.728925 1.441599 -19.394196 0
M  V30 78 H 11.555332 7.589093 -4.812630 0
M  V30 79 H 10.703389 6.045393 -4.861605 0
M  V30 80 H 12.174296 6.253301 -5.800494 0
M  V30 81 H 5.571582 5.769307 -17.663786 0
M  V30 82 H 13.938828 5.576523 -17.249682 0
M  V30 83 H 15.253579 5.111554 -18.285268 0
M  V30 84 H 9.360299 2.138535 -23.192140 0
M  V30 85 H 8.703780 3.540012 -22.383766 0
M  V30 86 H 10.451979 3.248323 -22.411551 0
M  V30 87 H 4.575093 7.779885 -15.567239 0
M  V30 88 H 6.975600 7.474505 -15.552577 0
M  V30 89 H 7.775470 6.386820 -16.670553 0
M  V30 90 H 11.153828 5.639860 -20.186832 0
M  V30 91 H 9.640496 4.968236 -20.997892 0
M  V30 92 H 10.444599 3.565467 -16.684987 0
M  V30 93 H 12.100365 3.927724 -16.391866 0
M  V30 94 H 12.777132 1.742453 -16.680140 0
M  V30 95 H 13.450584 0.679081 -17.862491 0
M  V30 96 H 7.685801 0.875929 -14.257034 0
M  V30 97 H 9.025019 3.187544 -10.784924 0
M  V30 98 H 9.927290 3.728226 -12.100767 0
M  V30 99 H 8.975614 7.305430 -9.018623 0
M  V30 100 H 8.166486 6.363717 -7.791761 0
M  V30 101 H 10.461108 -0.499009 -17.104813 0
M  V30 102 H 10.523057 -1.155411 -18.700589 0
M  V30 103 H 8.974667 0.490375 -15.884752 0
M  V30 104 H 8.991201 2.140060 -16.296876 0
M  V30 105 H 6.260235 -0.140030 -15.415247 0
M  V30 106 H 5.726220 5.381849 -14.643206 0
M  V30 107 H 7.388896 5.701500 -14.201856 0
M  V30 108 H 8.209090 4.135837 -15.905792 0
M  V30 109 H 6.578677 3.810025 -16.430906 0
M  V30 110 H 10.917268 8.122470 -7.108537 0
M  V30 111 H 9.474253 7.591227 -6.287668 0
M  V30 112 H 11.122402 5.285647 -12.384980 0
M  V30 113 H 9.826954 5.975299 -13.391727 0
M  V30 END ATOM
M  V30 BEGIN BOND
M  V30 1 1 2 1
M  V30 2 1 10 7
M  V30 3 1 10 8
M  V30 4 1 11 5
M  V30 5 1 12 2
M  V30 6 1 19 5
M  V30 7 1 19 7
M  V30 8 1 19 20 CFG=3
M  V30 9 1 21 15
M  V30 10 2 23 6
M  V30 11 1 25 19
M  V30 12 1 25 21
M  V30 13 1 26 5
M  V30 14 1 26 8
M  V30 15 1 28 6
M  V30 16 1 28 16
M  V30 17 1 29 15
M  V30 18 2 29 17
M  V30 19 1 29 21
M  V30 20 1 30 18
M  V30 21 1 31 2
M  V30 22 1 29 31 CFG=1
M  V30 23 1 32 20
M  V30 24 1 33 4
M  V30 25 1 33 18
M  V30 26 1 33 30
M  V30 27 1 34 22
M  V30 28 1 35 30
M  V30 29 2 36 25
M  V30 30 1 37 14
M  V30 31 1 21 37 CFG=1
M  V30 32 1 38 13
M  V30 33 2 38 24
M  V30 34 1 39 1
M  V30 35 1 39 15
M  V30 36 1 40 16
M  V30 37 1 41 6
M  V30 38 1 41 38
M  V30 39 1 42 3
M  V30 40 1 42 13
M  V30 41 1 43 9
M  V30 42 1 43 10
M  V30 43 1 44 8
M  V30 44 1 44 40
M  V30 45 1 45 40
M  V30 46 1 46 35
M  V30 47 1 47 16
M  V30 48 1 47 46
M  V30 49 1 48 3
M  V30 50 1 48 27
M  V30 51 1 49 22
M  V30 52 1 49 24
M  V30 53 1 50 1
M  V30 54 1 51 1
M  V30 55 1 2 52 CFG=1
M  V30 56 1 53 3
M  V30 57 1 54 3
M  V30 58 1 55 4
M  V30 59 1 56 4
M  V30 60 1 57 4
M  V30 61 1 5 58 CFG=1
M  V30 62 1 8 59 CFG=1
M  V30 63 1 60 9
M  V30 64 1 10 61 CFG=3
M  V30 65 1 62 11
M  V30 66 1 63 11
M  V30 67 1 64 11
M  V30 68 1 65 12
M  V30 69 1 66 13
M  V30 70 1 67 14
M  V30 71 1 68 14
M  V30 72 1 69 14
M  V30 73 1 15 70 CFG=3
M  V30 74 1 16 71 CFG=1
M  V30 75 1 72 18
M  V30 76 1 73 18
M  V30 77 1 74 20
M  V30 78 1 75 20
M  V30 79 1 76 26
M  V30 80 1 77 26
M  V30 81 1 78 27
M  V30 82 1 79 27
M  V30 83 1 80 27
M  V30 84 1 30 81 CFG=3
M  V30 85 1 82 31
M  V30 86 1 83 31
M  V30 87 1 84 32
M  V30 88 1 85 32
M  V30 89 1 86 32
M  V30 90 1 33 87 CFG=1
M  V30 91 1 88 35
M  V30 92 1 89 35
M  V30 93 1 90 36
M  V30 94 1 91 36
M  V30 95 1 92 37
M  V30 96 1 93 37
M  V30 97 1 94 39
M  V30 98 1 95 39
M  V30 99 1 40 96 CFG=1
M  V30 100 1 97 41
M  V30 101 1 98 41
M  V30 102 1 99 42
M  V30 103 1 100 42
M  V30 104 1 101 43
M  V30 105 1 102 43
M  V30 106 1 103 44
M  V30 107 1 104 44
M  V30 108 1 105 45
M  V30 109 1 106 46
M  V30 110 1 107 46
M  V30 111 1 108 47
M  V30 112 1 109 47
M  V30 113 1 110 48
M  V30 114 1 111 48
M  V30 115 1 112 49
M  V30 116 1 113 49
M  V30 END BOND
M  V30 END CTAB
M  END
>  <i_epik_Tot_Q>  (1) 
0

>  <i_epik_Tot_abs_Q>  (1) 
0

>  <i_i_glide_confnum>  (1) 
11982

>  <i_i_glide_lignum>  (1) 
156

>  <i_i_glide_posenum>  (1) 
57

>  <i_i_glide_rotatable_bonds>  (1) 
25

>  <i_lp_mmshare_version>  (1) 
72125

>  <i_m_source_file_index>  (1) 
87

>  <i_f3d_flags>  (1) 
0

>  <num_sample>  (1) 
100

>  <b_lp_Chiralities_Consistent>  (1) 
1

>  <r_epik_Charging_Adjusted_Penalty>  (1) 
1.2316584192148512

>  <r_epik_Ionization_Penalty>  (1) 
1.2316590375040075

>  <r_epik_Ionization_Penalty_Charging>  (1) 
0

>  <r_epik_Ionization_Penalty_Neutral>  (1) 
1.2316590375040075

>  <r_epik_State_Penalty>  (1) 
1.2316584192148512

>  <r_glide_ring_energy>  (1) 
0

>  <r_i_docking_score>  (1) 
-4.57065279442471

>  <r_i_glide_ecoul>  (1) 
-5.8233095444783007

>  <r_i_glide_eff_state_penalty>  (1) 
1.2316584192148512

>  <r_i_glide_einternal>  (1) 
29.639415264098474

>  <r_i_glide_emodel>  (1) 
-31.758514731189791

>  <r_i_glide_emodel_strain>  (1) 
3.0954296611783434

>  <r_i_glide_energy>  (1) 
-36.70236895212372

>  <r_i_glide_erotb>  (1) 
0.57622798544967491

>  <r_i_glide_esite>  (1) 
-0.068153293417341373

>  <r_i_glide_evdw>  (1) 
-30.879059407645418

>  <r_i_glide_gscore>  (1) 
-5.8023112136395616

>  <r_i_glide_gscore_strain>  (1) 
0

>  <r_i_glide_hbond>  (1) 
-0.2649913892847473

>  <r_i_glide_ligand_efficiency>  (1) 
-0.093278628457647145

>  <r_i_glide_ligand_efficiency_ln>  (1) 
-0.93434601352589308

>  <r_i_glide_ligand_efficiency_sa>  (1) 
-0.34133501773817948

>  <r_i_glide_lipo>  (1) 
-2.824094365249505

>  <r_i_glide_metal>  (1) 
-0

>  <r_i_glide_rewards>  (1) 
-0.80385074908362697

>  <r_lp_Energy>  (1) 
50.302675999999998

>  <s_epik_Chemistry_Notes>  (1) 
This compound has an ester and may undergo hydrolysis at high or low pH. This compound has an imine and may undergo hydrolysis. This compound contains an acetal/aminal-like group ( X-CH(R)-Y where X, Y are N, S, or O) that may be acid/base labile, releasing an aldehyde.

>  <s_epik_cmdline>  (1) 
J2VwaWtfcHl0aG9uJywgJy1waHQnLCAnMS4wJywgJy1waCcsICc3LjQnLCAnLXRuJywgJzgnLCAnLW1hJywgJzUwMCcsICctaW1hZScsICc8aW5maWxlLm1hZT4nLCAnLW9tYWUnLCAnPG91dGZpbGUubWFlPic=

>  <s_epik_input>  (1) 
W09IXVtDQEBIXShbQ0gyXTEpW0NIMl1bQ0gyXVtDQEhdKFAxMj1PKVtDQEBdMihbQ0gyXVtDSDNdKUMoPVtDSDJdKVtDQF0zKFtDSDJdW0NIM10pW0NAQEhdKFtDSDNdKVtDSDJdW0NAQEhdKFtDQEBIXShPMylbQ0gyXVtPSF0pW0NIMl1bQ0BIXShbT0hdKVtDQEhdKFtDSDJdW0NIMl1bQ0gyXVtDQEBIXTRbQ0gyXVtDQEhdNFtDSDNdKU9DKD1PKVtDSDJdQyg9TlxbQ0gyXU9GKS9bTkhdW0NIMl1bQ0gyXVtDSDJdW0NIM10=

>  <s_glide_docking_method>  (1) 
confgen

>  <s_i_glide_gridfile>  (1) 
gpcr_drd2_6luq_protein_autoprepared_prepared

>  <s_lp_Force_Field>  (1) 
S-OPLS

>  <s_lp_Variant>  (1) 
DiffSBDD_86-4

>  <s_m_source_file>  (1) 
generated_generic_title2_ligand_DiffSBDD_2026-06-23_prepared.sdf

>  <GenAI_Model>  (1) 
DiffSBDD

>  <Protein>  (1) 
generic_title2

$$$$
DiffSBDD_28
     RDKit          3D

  0  0  0  0  0  0  0  0  0  0999 V3000
M  V30 BEGIN CTAB
M  V30 COUNTS 61 65 0 0 1
M  V30 BEGIN ATOM
M  V30 1 C 8.957824 4.961986 -14.061735 0 CFG=1
M  V30 2 F 7.140659 2.598264 -14.401823 0
M  V30 3 C 7.732406 3.831966 -16.374591 0
M  V30 4 C 9.280992 4.410780 -9.481987 0
M  V30 5 C 9.449343 5.915286 -9.434646 0
M  V30 6 C 8.758452 2.635405 -18.242943 0
M  V30 7 C 10.018554 8.542129 -6.095616 0 CFG=2
M  V30 8 O 11.775414 9.705952 -7.017493 0
M  V30 9 C 11.294543 7.823209 -5.708540 0
M  V30 10 C 8.744118 1.444541 -17.491725 0
M  V30 11 C 10.530967 6.404219 -8.444151 0
M  V30 12 C 12.491914 7.858638 -9.109664 0
M  V30 13 C 10.099451 5.190205 -15.065315 0
M  V30 14 C 9.352716 5.265953 -12.611650 0 CFG=1
M  V30 15 Cl 9.375631 -0.010260 -18.169742 0
M  V30 16 O 6.115394 7.190301 -14.333844 0
M  V30 17 C 7.873491 7.189789 -12.676482 0 CFG=1
M  V30 18 O 8.975406 7.660778 -6.385035 0
M  V30 19 C 8.206234 1.438527 -16.191635 0
M  V30 20 C 8.223321 5.262468 -8.817280 0
M  V30 21 C 7.153252 6.643065 -13.947149 0
M  V30 22 O 9.264944 6.628356 -10.689642 0
M  V30 23 O 6.938547 7.988540 -11.985029 0
M  V30 24 N 7.721388 5.557474 -14.588948 0
M  V30 25 C 7.697083 2.625117 -15.632231 0
M  V30 26 C 11.062707 7.869023 -8.519260 0
M  V30 27 C 10.240164 8.805432 -9.415521 0
M  V30 28 O 10.975392 5.643985 -7.585045 0
M  V30 29 C 11.132341 8.473668 -7.082120 0 CFG=1
M  V30 30 C 8.442430 6.097387 -11.753470 0 CFG=2
M  V30 31 C 7.168179 5.112925 -15.796077 0
M  V30 32 C 8.961995 3.885282 -12.969812 0
M  V30 33 C 8.244885 3.824964 -17.690470 0
M  V30 34 O 6.270640 5.703514 -16.403972 0
M  V30 35 H 9.001677 3.921346 -10.401255 0
M  V30 36 H 9.925940 3.813784 -8.841031 0
M  V30 37 H 9.161000 2.636590 -19.245926 0
M  V30 38 H 9.775440 9.463984 -5.585017 0
M  V30 39 H 11.384560 10.270395 -7.666115 0
M  V30 40 H 11.201419 6.755756 -5.537783 0
M  V30 41 H 11.922242 8.326362 -4.975044 0
M  V30 42 H 12.788403 8.847337 -9.460274 0
M  V30 43 H 13.236202 7.590222 -8.361636 0
M  V30 44 H 12.575279 7.190145 -9.966094 0
M  V30 45 H 10.975441 5.590376 -14.568393 0
M  V30 46 H 10.380841 4.279892 -15.585268 0
M  V30 47 H 9.836087 5.922769 -15.829897 0
M  V30 48 H 10.412319 5.424671 -12.417385 0
M  V30 49 H 8.680347 7.846680 -12.993282 0
M  V30 50 H 8.316841 8.072222 -6.928937 0
M  V30 51 H 8.178387 0.520525 -15.623780 0
M  V30 52 H 8.162314 5.228413 -7.731111 0
M  V30 53 H 7.262831 5.383019 -9.308487 0
M  V30 54 H 7.096912 7.968016 -11.033067 0
M  V30 55 H 10.642270 9.806365 -9.348649 0
M  V30 56 H 10.358255 8.583957 -10.474014 0
M  V30 57 H 9.181387 8.826629 -9.153923 0
M  V30 58 H 7.607313 5.499696 -11.395684 0
M  V30 59 H 9.775488 3.176385 -12.852178 0
M  V30 60 H 8.019914 3.552180 -12.541030 0
M  V30 61 H 8.254479 4.736313 -18.271969 0
M  V30 END ATOM
M  V30 BEGIN BOND
M  V30 1 1 5 4
M  V30 2 1 9 7
M  V30 3 1 10 6
M  V30 4 1 11 5
M  V30 5 1 1 13 CFG=3
M  V30 6 1 14 1
M  V30 7 1 15 10
M  V30 8 1 18 7
M  V30 9 2 19 10
M  V30 10 1 20 4
M  V30 11 1 20 5
M  V30 12 2 21 16
M  V30 13 1 21 17
M  V30 14 1 22 5
M  V30 15 1 23 17
M  V30 16 1 24 1
M  V30 17 1 24 21
M  V30 18 1 25 2
M  V30 19 2 25 3
M  V30 20 1 25 19
M  V30 21 1 26 11
M  V30 22 1 26 12
M  V30 23 1 27 26
M  V30 24 2 28 11
M  V30 25 1 29 7
M  V30 26 1 29 8 CFG=3
M  V30 27 1 29 9
M  V30 28 1 29 26
M  V30 29 1 30 14
M  V30 30 1 30 17
M  V30 31 1 30 22
M  V30 32 1 31 3
M  V30 33 1 31 24
M  V30 34 1 32 1
M  V30 35 1 32 14
M  V30 36 1 33 3
M  V30 37 2 33 6
M  V30 38 2 34 31
M  V30 39 1 35 4
M  V30 40 1 36 4
M  V30 41 1 37 6
M  V30 42 1 7 38 CFG=1
M  V30 43 1 39 8
M  V30 44 1 40 9
M  V30 45 1 41 9
M  V30 46 1 42 12
M  V30 47 1 43 12
M  V30 48 1 44 12
M  V30 49 1 45 13
M  V30 50 1 46 13
M  V30 51 1 47 13
M  V30 52 1 14 48 CFG=3
M  V30 53 1 17 49 CFG=3
M  V30 54 1 50 18
M  V30 55 1 51 19
M  V30 56 1 52 20
M  V30 57 1 53 20
M  V30 58 1 54 23
M  V30 59 1 55 27
M  V30 60 1 56 27
M  V30 61 1 57 27
M  V30 62 1 30 58 CFG=1
M  V30 63 1 59 32
M  V30 64 1 60 32
M  V30 65 1 61 33
M  V30 END BOND
M  V30 END CTAB
M  END
>  <i_epik_Tot_Q>  (1) 
0

>  <i_epik_Tot_abs_Q>  (1) 
0

>  <i_i_glide_confnum>  (1) 
363

>  <i_i_glide_lignum>  (1) 
49

>  <i_i_glide_posenum>  (1) 
353

>  <i_i_glide_rotatable_bonds>  (1) 
10

>  <i_lp_mmshare_version>  (1) 
72125

>  <i_m_source_file_index>  (1) 
29

>  <i_f3d_flags>  (1) 
0

>  <num_sample>  (1) 
100

>  <b_lp_Chiralities_Consistent>  (1) 
1

>  <r_epik_Charging_Adjusted_Penalty>  (1) 
0

>  <r_epik_Ionization_Penalty>  (1) 
0.00021297919892765405

>  <r_epik_Ionization_Penalty_Charging>  (1) 
0

>  <r_epik_Ionization_Penalty_Neutral>  (1) 
0.00021297919892765405

>  <r_epik_State_Penalty>  (1) 
-0

>  <r_glide_ring_energy>  (1) 
0

>  <r_i_docking_score>  (1) 
-4.5705602133394612

>  <r_i_glide_ecoul>  (1) 
-5.4559900401556547

>  <r_i_glide_eff_state_penalty>  (1) 
-0

>  <r_i_glide_einternal>  (1) 
13.101822000103674

>  <r_i_glide_emodel>  (1) 
-28.246695278921184

>  <r_i_glide_emodel_strain>  (1) 
2.1469246617276383

>  <r_i_glide_energy>  (1) 
-29.113600646808397

>  <r_i_glide_erotb>  (1) 
0.58028021172077726

>  <r_i_glide_esite>  (1) 
-0.023422078740767367

>  <r_i_glide_evdw>  (1) 
-23.657610606652742

>  <r_i_glide_gscore>  (1) 
-4.5705602133394612

>  <r_i_glide_gscore_strain>  (1) 
0

>  <r_i_glide_hbond>  (1) 
-0.19827911503320611

>  <r_i_glide_ligand_efficiency>  (1) 
-0.13442824156880767

>  <r_i_glide_ligand_efficiency_ln>  (1) 
-1.009764950998252

>  <r_i_glide_ligand_efficiency_sa>  (1) 
-0.43549531781128975

>  <r_i_glide_lipo>  (1) 
-1.8353499556009758

>  <r_i_glide_metal>  (1) 
-0

>  <r_i_glide_rewards>  (1) 
-1.0925102393293049

>  <r_lp_Energy>  (1) 
67.434545999999997

>  <r_lp_tautomer_probability>  (1) 
1

>  <s_epik_cmdline>  (1) 
J2VwaWtfcHl0aG9uJywgJy1waHQnLCAnMS4wJywgJy1waCcsICc3LjQnLCAnLXRuJywgJzgnLCAnLW1hJywgJzUwMCcsICctaW1hZScsICc8aW5maWxlLm1hZT4nLCAnLW9tYWUnLCAnPG91dGZpbGUubWFlPic=

>  <s_epik_input>  (1) 
W0NIMl0xW0NASF0oW09IXSlbQ0BdMShbT0hdKUMoW0NIM10pKFtDSDNdKUMoPU8pQzIoW0NIMl1bQ0gyXTIpT1tDQEhdKFtDQEBIXShbQ0gyXTMpW0NAQF0zNFtDSDNdKVtDQEhdKFtPSF0pQyg9TylONEMoPU8pYzVjKEYpW2NIXWMoQ2wpW2NIXVtjSF01

>  <s_glide_docking_method>  (1) 
confgen

>  <s_i_glide_gridfile>  (1) 
gpcr_drd2_6luq_protein_autoprepared_prepared

>  <s_lp_Force_Field>  (1) 
S-OPLS

>  <s_lp_Variant>  (1) 
DiffSBDD_28-1

>  <s_m_source_file>  (1) 
generated_generic_title2_ligand_DiffSBDD_2026-06-23_prepared.sdf

>  <GenAI_Model>  (1) 
DiffSBDD

>  <Protein>  (1) 
generic_title2

$$$$
DiffSBDD_4
     RDKit          3D

  0  0  0  0  0  0  0  0  0  0999 V3000
M  V30 BEGIN CTAB
M  V30 COUNTS 76 80 0 0 1
M  V30 BEGIN ATOM
M  V30 1 C 8.168215 6.309326 -12.952134 0 CFG=1
M  V30 2 C 7.336005 4.754489 -15.378195 0 CFG=2
M  V30 3 C 5.432885 6.013367 -17.949162 0
M  V30 4 O 7.909336 7.590661 -20.848144 0
M  V30 5 C 5.610649 7.112001 -20.234532 0 CFG=1
M  V30 6 O 10.796384 7.190050 -11.993346 0
M  V30 7 C 6.666905 6.113315 -13.254384 0 CFG=2
M  V30 8 C 9.564295 7.530288 -6.671431 0 CFG=2
M  V30 9 C 6.965576 5.864403 -17.795141 0 CFG=2
M  V30 10 C 8.448043 6.852919 -11.549598 0 CFG=2
M  V30 11 C 5.282015 5.662378 -22.128022 0
M  V30 12 O 10.066765 8.611543 -7.423553 0
M  V30 13 C 9.228943 5.940302 -19.037764 0
M  V30 14 C 5.221595 8.396452 -21.007688 0
M  V30 15 C 10.213405 6.867431 -5.471839 0
M  V30 16 C 7.144912 6.915632 -20.155840 0
M  V30 17 O 10.503593 5.594061 -7.684036 0
M  V30 18 C 8.959700 5.062614 -13.397673 0
M  V30 19 C 11.780219 7.867652 -9.562725 0
M  V30 20 C 9.946427 6.001511 -8.939719 0
M  V30 21 O 9.566003 8.434728 -8.851552 0
M  V30 22 C 4.679230 4.663448 -22.783705 0
M  V30 23 C 10.805320 6.665914 -6.821548 0 CFG=1
M  V30 24 C 5.037666 7.212668 -18.810243 0
M  V30 25 C 8.726787 8.353105 -11.498810 0
M  V30 26 C 7.680568 5.830476 -19.181687 0 CFG=2
M  V30 27 O 6.131504 5.031690 -12.517587 0
M  V30 28 C 10.000455 5.253417 -20.173361 0
M  V30 29 C 7.275965 4.602495 -16.931725 0
M  V30 30 C 10.289396 7.408694 -9.554638 0 CFG=1
M  V30 31 C 6.434899 5.861687 -14.759077 0
M  V30 32 C 9.784934 7.392120 -11.023149 0 CFG=2
M  V30 33 O 4.985678 5.959604 -20.820011 0
M  V30 34 C 8.802225 4.882356 -14.919626 0
M  V30 35 H 8.490504 7.113632 -13.596327 0
M  V30 36 H 6.982503 3.808257 -14.965341 0
M  V30 37 H 5.018288 5.108943 -18.395991 0
M  V30 38 H 4.949087 6.123235 -16.982188 0
M  V30 39 H 10.690450 6.323615 -12.356383 0
M  V30 40 H 6.116158 7.008895 -12.960890 0
M  V30 41 H 8.574805 7.186115 -6.967059 0
M  V30 42 H 7.352296 6.744599 -17.291049 0
M  V30 43 H 7.817389 6.395222 -10.786812 0
M  V30 44 H 6.036466 6.308037 -22.552364 0
M  V30 45 H 9.528631 6.987690 -18.985063 0
M  V30 46 H 9.580458 5.524903 -18.095467 0
M  V30 47 H 5.574824 9.286715 -20.487468 0
M  V30 48 H 5.637361 8.429668 -22.015645 0
M  V30 49 H 4.138645 8.480821 -21.100896 0
M  V30 50 H 10.751827 7.514464 -4.785618 0
M  V30 51 H 9.718887 6.012702 -5.019387 0
M  V30 52 H 10.020926 5.150303 -13.182463 0
M  V30 53 H 8.624168 4.173951 -12.864269 0
M  V30 54 H 12.441969 7.114574 -9.982314 0
M  V30 55 H 11.888859 8.762184 -10.178127 0
M  V30 56 H 12.186380 8.159172 -8.600759 0
M  V30 57 H 8.863304 5.933808 -8.828292 0
M  V30 58 H 10.175234 5.215879 -9.653897 0
M  V30 59 H 4.925184 4.443345 -23.811708 0
M  V30 60 H 3.933317 4.055120 -22.301126 0
M  V30 61 H 11.814933 7.049408 -6.919795 0
M  V30 62 H 3.949951 7.279636 -18.850371 0
M  V30 63 H 5.369205 8.132647 -18.328072 0
M  V30 64 H 8.175038 8.950292 -10.784517 0
M  V30 65 H 8.964056 8.900537 -12.404973 0
M  V30 66 H 7.442886 4.868988 -19.638404 0
M  V30 67 H 6.638149 4.258062 -12.711814 0
M  V30 68 H 11.075955 5.381514 -20.043138 0
M  V30 69 H 9.794660 4.182624 -20.190719 0
M  V30 70 H 9.733521 5.661274 -21.146862 0
M  V30 71 H 8.211142 4.147917 -17.252508 0
M  V30 72 H 6.575434 3.817677 -17.195677 0
M  V30 73 H 6.608290 6.810650 -15.263720 0
M  V30 74 H 5.384318 5.615285 -14.913114 0
M  V30 75 H 9.263690 5.721745 -15.437893 0
M  V30 76 H 9.354247 3.999202 -15.238917 0
M  V30 END ATOM
M  V30 BEGIN BOND
M  V30 1 1 7 1
M  V30 2 1 9 3
M  V30 3 1 10 1
M  V30 4 1 12 8
M  V30 5 1 14 5
M  V30 6 1 15 8
M  V30 7 2 16 4
M  V30 8 1 16 5
M  V30 9 1 18 1
M  V30 10 1 20 17
M  V30 11 1 21 12
M  V30 12 2 22 11
M  V30 13 1 23 8
M  V30 14 1 23 15
M  V30 15 1 23 17
M  V30 16 1 24 3
M  V30 17 1 24 5
M  V30 18 1 25 10
M  V30 19 1 26 9
M  V30 20 1 26 13
M  V30 21 1 26 16
M  V30 22 1 27 7
M  V30 23 1 28 13
M  V30 24 1 29 2
M  V30 25 1 29 9
M  V30 26 1 30 19 CFG=3
M  V30 27 1 30 20
M  V30 28 1 30 21
M  V30 29 1 31 2
M  V30 30 1 31 7
M  V30 31 1 32 6 CFG=3
M  V30 32 1 32 10
M  V30 33 1 32 25
M  V30 34 1 32 30
M  V30 35 1 5 33 CFG=3
M  V30 36 1 33 11
M  V30 37 1 34 2
M  V30 38 1 34 18
M  V30 39 1 1 35 CFG=3
M  V30 40 1 2 36 CFG=1
M  V30 41 1 37 3
M  V30 42 1 38 3
M  V30 43 1 39 6
M  V30 44 1 7 40 CFG=1
M  V30 45 1 8 41 CFG=3
M  V30 46 1 9 42 CFG=1
M  V30 47 1 10 43 CFG=1
M  V30 48 1 44 11
M  V30 49 1 45 13
M  V30 50 1 46 13
M  V30 51 1 47 14
M  V30 52 1 48 14
M  V30 53 1 49 14
M  V30 54 1 50 15
M  V30 55 1 51 15
M  V30 56 1 52 18
M  V30 57 1 53 18
M  V30 58 1 54 19
M  V30 59 1 55 19
M  V30 60 1 56 19
M  V30 61 1 57 20
M  V30 62 1 58 20
M  V30 63 1 59 22
M  V30 64 1 60 22
M  V30 65 1 23 61 CFG=1
M  V30 66 1 62 24
M  V30 67 1 63 24
M  V30 68 1 64 25
M  V30 69 1 65 25
M  V30 70 1 26 66 CFG=3
M  V30 71 1 67 27
M  V30 72 1 68 28
M  V30 73 1 69 28
M  V30 74 1 70 28
M  V30 75 1 71 29
M  V30 76 1 72 29
M  V30 77 1 73 31
M  V30 78 1 74 31
M  V30 79 1 75 34
M  V30 80 1 76 34
M  V30 END BOND
M  V30 END CTAB
M  END
>  <i_epik_Tot_Q>  (1) 
0

>  <i_epik_Tot_abs_Q>  (1) 
0

>  <i_i_glide_confnum>  (1) 
24

>  <i_i_glide_lignum>  (1) 
8

>  <i_i_glide_posenum>  (1) 
250

>  <i_i_glide_rotatable_bonds>  (1) 
9

>  <i_lp_mmshare_version>  (1) 
72125

>  <i_m_source_file_index>  (1) 
5

>  <i_f3d_flags>  (1) 
0

>  <num_sample>  (1) 
100

>  <b_lp_Chiralities_Consistent>  (1) 
1

>  <r_epik_Charging_Adjusted_Penalty>  (1) 
0

>  <r_epik_Ionization_Penalty>  (1) 
6.2478277439111229e-07

>  <r_epik_Ionization_Penalty_Charging>  (1) 
0

>  <r_epik_Ionization_Penalty_Neutral>  (1) 
6.2478277439111229e-07

>  <r_epik_State_Penalty>  (1) 
-0

>  <r_glide_ring_energy>  (1) 
0

>  <r_i_docking_score>  (1) 
-4.5692905302580886

>  <r_i_glide_ecoul>  (1) 
-2.1215340554713911

>  <r_i_glide_eff_state_penalty>  (1) 
-0

>  <r_i_glide_einternal>  (1) 
28.555620661702573

>  <r_i_glide_emodel>  (1) 
-23.135152219272996

>  <r_i_glide_emodel_strain>  (1) 
4.1545636011725406

>  <r_i_glide_energy>  (1) 
-34.433816494170735

>  <r_i_glide_erotb>  (1) 
0.53077912702887098

>  <r_i_glide_esite>  (1) 
-0.10000000000000001

>  <r_i_glide_evdw>  (1) 
-32.312282438699341

>  <r_i_glide_gscore>  (1) 
-4.5692905302580886

>  <r_i_glide_gscore_strain>  (1) 
0.038640900293135161

>  <r_i_glide_hbond>  (1) 
0

>  <r_i_glide_ligand_efficiency>  (1) 
-0.13439089794876732

>  <r_i_glide_ligand_efficiency_ln>  (1) 
-1.0094844423921727

>  <r_i_glide_ligand_efficiency_sa>  (1) 
-0.43537433897910455

>  <r_i_glide_lipo>  (1) 
-2.3486807220907377

>  <r_i_glide_metal>  (1) 
-0

>  <r_i_glide_rewards>  (1) 
-0.75618560523368084

>  <r_lp_Energy>  (1) 
51.660091999999999

>  <r_lp_tautomer_probability>  (1) 
1

>  <s_epik_cmdline>  (1) 
J2VwaWtfcHl0aG9uJywgJy1waHQnLCAnMS4wJywgJy1waCcsICc3LjQnLCAnLXRuJywgJzgnLCAnLW1hJywgJzUwMCcsICctaW1hZScsICc8aW5maWxlLm1hZT4nLCAnLW9tYWUnLCAnPG91dGZpbGUubWFlPic=

>  <s_epik_input>  (1) 
W0NAQEhdMTJbQ0BASF0oW0NIMl0yKU9bQ0gyXVtDQF0oW0NIM10pKE9PMSlbQ0BAXTMoW09IXSlbQ0BASF0oW0NIMl0zKVtDQEBIXTRbQ0BIXShbT0hdKVtDSDJdW0NASF0oW0NIMl1bQ0gyXTQpW0NIMl1bQ0BIXShbQ0gyXVtDSDJdNSlbQ0BIXShbQ0gyXVtDSDNdKUMoPU8pW0NAQF01KFtDSDNdKU9bQ0hdPVtDSDJd

>  <s_glide_docking_method>  (1) 
confgen

>  <s_i_glide_gridfile>  (1) 
gpcr_drd2_6luq_protein_autoprepared_prepared

>  <s_lp_Force_Field>  (1) 
S-OPLS

>  <s_lp_Variant>  (1) 
DiffSBDD_4-1

>  <s_m_source_file>  (1) 
generated_generic_title2_ligand_DiffSBDD_2026-06-23_prepared.sdf

>  <GenAI_Model>  (1) 
DiffSBDD

>  <Protein>  (1) 
generic_title2

$$$$
DiffSBDD_1
     RDKit          3D

  0  0  0  0  0  0  0  0  0  0999 V3000
M  V30 BEGIN CTAB
M  V30 COUNTS 73 75 0 0 1
M  V30 BEGIN ATOM
M  V30 1 F 10.973919 5.693189 -17.406109 0
M  V30 2 C 11.257181 7.761093 -9.092322 0
M  V30 3 C 7.958919 6.250944 -19.427153 0
M  V30 4 C 9.907638 5.123838 -17.990437 0
M  V30 5 C 7.234973 5.652361 -11.490424 0 CFG=1
M  V30 6 C 6.975415 3.068250 -17.414062 0
M  V30 7 F 9.620645 4.825819 -20.341893 0
M  V30 8 C 10.610339 7.342245 -5.933515 0
M  V30 9 C 7.014375 4.550482 -17.791421 0 CFG=1
M  V30 10 C 6.784056 5.273046 -19.111101 0
M  V30 11 C 8.266645 5.571822 -10.331671 0
M  V30 12 C 6.855101 5.515872 -16.589141 0 CFG=1
M  V30 13 C 6.473254 2.853432 -13.046743 0
M  V30 14 O 8.975421 7.849245 -10.785024 0
M  V30 15 C 7.018013 5.609397 -14.107616 0
M  V30 16 C 7.672523 5.004194 -12.842454 0 CFG=2
M  V30 17 C 10.320715 6.789919 -9.147237 0
M  V30 18 C 10.045252 5.872765 -7.955868 0
M  V30 19 N 9.333565 4.134030 -17.409061 0
M  V30 20 C 6.659946 1.326405 -13.064556 0
M  V30 21 O 5.374040 -1.121643 -16.509962 0
M  V30 22 O 5.520901 5.990342 -16.544493 0
M  V30 23 C 7.495443 0.834455 -14.234775 0
M  V30 24 C 9.420891 5.696554 -19.350614 0 CFG=1
M  V30 25 C 5.529641 -0.105700 -15.544457 0
M  V30 26 C 9.461262 6.575792 -10.407354 0 CFG=1
M  V30 27 C 7.000780 0.204089 -15.320375 0
M  V30 28 O 6.242625 6.563917 -14.016577 0
M  V30 29 C 8.183228 3.603977 -18.092177 0 CFG=1
M  V30 30 O 5.973866 5.190465 -11.047650 0
M  V30 31 C 11.304811 8.502713 -6.658376 0
M  V30 32 N 7.352294 5.045001 -15.284676 0
M  V30 33 C 9.501366 6.663218 -6.752838 0
M  V30 34 C 12.120664 8.053378 -7.877422 0
M  V30 35 O 7.708681 3.559778 -12.860694 0
M  V30 36 H 11.413988 8.394732 -9.953658 0
M  V30 37 H 7.798555 6.646701 -20.430501 0
M  V30 38 H 7.889744 7.126607 -18.782287 0
M  V30 39 H 7.034662 6.707285 -11.670125 0
M  V30 40 H 7.083859 2.769164 -16.376235 0
M  V30 41 H 6.307622 2.433087 -17.993335 0
M  V30 42 H 11.346966 6.602009 -5.617403 0
M  V30 43 H 10.175402 7.729540 -5.017127 0
M  V30 44 H 6.678132 4.541700 -19.914086 0
M  V30 45 H 5.837483 5.812807 -19.085469 0
M  V30 46 H 7.729207 5.755821 -9.402104 0
M  V30 47 H 8.637340 4.548485 -10.259284 0
M  V30 48 H 7.458727 6.390229 -16.785275 0
M  V30 49 H 5.982248 3.142999 -13.974459 0
M  V30 50 H 5.778028 3.088251 -12.246304 0
M  V30 51 H 8.146816 7.990121 -10.292455 0
M  V30 52 H 8.719283 5.286375 -12.960693 0
M  V30 53 H 9.381294 5.044277 -8.181446 0
M  V30 54 H 10.975439 5.382120 -7.674537 0
M  V30 55 H 5.675706 0.864698 -13.059120 0
M  V30 56 H 7.136696 0.975819 -12.151887 0
M  V30 57 H 5.349322 -1.957992 -16.066034 0
M  V30 58 H 5.375333 6.313562 -15.662436 0
M  V30 59 H 8.558633 1.015381 -14.168696 0
M  V30 60 H 10.091445 6.520379 -19.595689 0
M  V30 61 H 5.040839 0.790179 -15.924581 0
M  V30 62 H 5.018611 -0.409771 -14.632085 0
M  V30 63 H 10.134661 6.249665 -11.200069 0
M  V30 64 H 7.678574 -0.107468 -16.102114 0
M  V30 65 H 8.388481 3.190956 -19.079726 0
M  V30 66 H 5.748948 5.679872 -10.267348 0
M  V30 67 H 11.974860 8.994924 -5.953129 0
M  V30 68 H 10.566332 9.248549 -6.948337 0
M  V30 69 H 7.997144 4.266586 -15.284491 0
M  V30 70 H 8.962147 5.990221 -6.090432 0
M  V30 71 H 8.758056 7.392817 -7.079736 0
M  V30 72 H 12.722811 7.190279 -7.611873 0
M  V30 73 H 12.823061 8.838648 -8.155961 0
M  V30 END ATOM
M  V30 BEGIN BOND
M  V30 1 1 4 1
M  V30 2 1 9 6 CFG=1
M  V30 3 1 10 3
M  V30 4 1 10 9
M  V30 5 1 11 5
M  V30 6 1 12 9
M  V30 7 1 16 5
M  V30 8 1 16 15
M  V30 9 2 17 2
M  V30 10 1 18 17
M  V30 11 2 19 4
M  V30 12 1 20 13
M  V30 13 1 22 12
M  V30 14 1 23 20
M  V30 15 1 24 3
M  V30 16 1 24 4
M  V30 17 1 24 7
M  V30 18 1 25 21
M  V30 19 1 26 11
M  V30 20 1 26 14
M  V30 21 1 26 17
M  V30 22 2 27 23
M  V30 23 1 27 25
M  V30 24 2 28 15
M  V30 25 1 29 6
M  V30 26 1 29 9
M  V30 27 1 29 19
M  V30 28 1 30 5
M  V30 29 1 31 8
M  V30 30 1 32 12
M  V30 31 1 32 15
M  V30 32 1 33 8
M  V30 33 1 33 18
M  V30 34 1 34 2
M  V30 35 1 34 31
M  V30 36 1 35 13
M  V30 37 1 35 16
M  V30 38 1 36 2
M  V30 39 1 37 3
M  V30 40 1 38 3
M  V30 41 1 5 39 CFG=3
M  V30 42 1 40 6
M  V30 43 1 41 6
M  V30 44 1 42 8
M  V30 45 1 43 8
M  V30 46 1 44 10
M  V30 47 1 45 10
M  V30 48 1 46 11
M  V30 49 1 47 11
M  V30 50 1 12 48 CFG=3
M  V30 51 1 49 13
M  V30 52 1 50 13
M  V30 53 1 51 14
M  V30 54 1 16 52 CFG=3
M  V30 55 1 53 18
M  V30 56 1 54 18
M  V30 57 1 55 20
M  V30 58 1 56 20
M  V30 59 1 57 21
M  V30 60 1 58 22
M  V30 61 1 59 23
M  V30 62 1 24 60 CFG=3
M  V30 63 1 61 25
M  V30 64 1 62 25
M  V30 65 1 26 63 CFG=3
M  V30 66 1 64 27
M  V30 67 1 29 65 CFG=3
M  V30 68 1 66 30
M  V30 69 1 67 31
M  V30 70 1 68 31
M  V30 71 1 69 32
M  V30 72 1 70 33
M  V30 73 1 71 33
M  V30 74 1 72 34
M  V30 75 1 73 34
M  V30 END BOND
M  V30 END CTAB
M  END
>  <i_epik_Tot_Q>  (1) 
0

>  <i_epik_Tot_abs_Q>  (1) 
0

>  <i_i_glide_confnum>  (1) 
2947

>  <i_i_glide_lignum>  (1) 
2

>  <i_i_glide_posenum>  (1) 
342

>  <i_i_glide_rotatable_bonds>  (1) 
17

>  <i_lp_mmshare_version>  (1) 
72125

>  <i_m_source_file_index>  (1) 
2

>  <i_f3d_flags>  (1) 
0

>  <num_sample>  (1) 
100

>  <b_lp_Chiralities_Consistent>  (1) 
1

>  <r_epik_Charging_Adjusted_Penalty>  (1) 
0

>  <r_epik_Ionization_Penalty>  (1) 
3.3646854675809213e-05

>  <r_epik_Ionization_Penalty_Charging>  (1) 
0

>  <r_epik_Ionization_Penalty_Neutral>  (1) 
3.3646854675809213e-05

>  <r_epik_State_Penalty>  (1) 
-0

>  <r_glide_ring_energy>  (1) 
0.00078572505473429135

>  <r_i_docking_score>  (1) 
-4.5687862524379259

>  <r_i_glide_ecoul>  (1) 
-6.9055046622433114

>  <r_i_glide_eff_state_penalty>  (1) 
-0

>  <r_i_glide_einternal>  (1) 
22.163699625154948

>  <r_i_glide_emodel>  (1) 
-35.133209348133036

>  <r_i_glide_emodel_strain>  (1) 
6.6585989134583627

>  <r_i_glide_energy>  (1) 
-43.062882314550436

>  <r_i_glide_erotb>  (1) 
0.89639897310018468

>  <r_i_glide_esite>  (1) 
0

>  <r_i_glide_evdw>  (1) 
-36.157377652307126

>  <r_i_glide_gscore>  (1) 
-4.5687862524379259

>  <r_i_glide_gscore_strain>  (1) 
0.66464972836459069

>  <r_i_glide_hbond>  (1) 
-0.1452977520502475

>  <r_i_glide_ligand_efficiency>  (1) 
-0.13053675006965504

>  <r_i_glide_ligand_efficiency_ln>  (1) 
-1.0029499811577778

>  <r_i_glide_ligand_efficiency_sa>  (1) 
-0.42699436539435665

>  <r_i_glide_lipo>  (1) 
-1.979024823707247

>  <r_i_glide_metal>  (1) 
-0

>  <r_i_glide_rewards>  (1) 
-1.1618177961933542

>  <r_lp_Energy>  (1) 
34.404662999999999

>  <r_lp_tautomer_probability>  (1) 
1

>  <s_epik_Chemistry_Notes>  (1) 
This compound has an imine and may undergo hydrolysis. This compound contains an acetal/aminal-like group ( X-CH(R)-Y where X, Y are N, S, or O) that may be acid/base labile, releasing an aldehyde.

>  <s_epik_cmdline>  (1) 
J2VwaWtfcHl0aG9uJywgJy1waHQnLCAnMS4wJywgJy1waCcsICc3LjQnLCAnLXRuJywgJzgnLCAnLW1hJywgJzUwMCcsICctaW1hZScsICc8aW5maWxlLm1hZT4nLCAnLW9tYWUnLCAnPG91dGZpbGUubWFlPic=

>  <s_epik_input>  (1) 
W0NIMl0xW0NIMl1bQ0BIXShGKUMoRik9TltDQEBIXShbQ0gyXTIpQzEyW0NAQEhdKFtPSF0pW05IXUMoPU8pW0NASF0oT1tDSDJdW0NIMl0vW0NIXT1bQ0hdXFtDSDJdW09IXSlbQ0BASF0oW09IXSlbQ0gyXVtDQEBIXShbT0hdKUMzPVtDSF1bQ0gyXVtDSDJdW0NIMl1bQ0gyXVtDSDJdMw==

>  <s_glide_docking_method>  (1) 
confgen

>  <s_i_glide_gridfile>  (1) 
gpcr_drd2_6luq_protein_autoprepared_prepared

>  <s_lp_Force_Field>  (1) 
S-OPLS

>  <s_lp_Variant>  (1) 
DiffSBDD_1-1

>  <s_m_source_file>  (1) 
generated_generic_title2_ligand_DiffSBDD_2026-06-23_prepared.sdf

>  <GenAI_Model>  (1) 
DiffSBDD

>  <Protein>  (1) 
generic_title2

$$$$
DiffSBDD_76
     RDKit          3D

  0  0  0  0  0  0  0  0  0  0999 V3000
M  V30 BEGIN CTAB
M  V30 COUNTS 53 56 0 0 1
M  V30 BEGIN ATOM
M  V30 1 N 8.968839 5.645693 -13.073246 0
M  V30 2 N 11.362460 7.773000 -4.785042 0
M  V30 3 C 7.203187 5.061334 -14.786040 0 CFG=2
M  V30 4 C 10.548700 7.287368 -5.888483 0
M  V30 5 F 7.775431 4.668044 -9.527968 0
M  V30 6 C 11.791523 8.984500 -4.514570 0
M  V30 7 C 6.582617 5.638358 -16.051533 0
M  V30 8 C 8.348131 5.990218 -14.345406 0
M  V30 9 C 10.807544 7.534217 -9.555470 0
M  V30 10 C 8.172487 6.115253 -11.948813 0
M  V30 11 C 5.411345 6.743378 -18.372830 0
M  V30 12 N 11.775413 6.938107 -3.817098 0
M  V30 13 C 6.376912 5.726258 -18.494840 0
M  V30 14 C 5.032248 7.208383 -17.100809 0
M  V30 15 C 7.987890 4.075304 -17.497560 0
M  V30 16 N 11.472112 10.020434 -5.374526 0
M  V30 17 C 8.575461 3.493917 -16.209627 0
M  V30 18 C 5.616834 6.660781 -15.944414 0
M  V30 19 C 10.560245 6.778930 -8.388156 0
M  V30 20 C 7.646249 3.611488 -15.002084 0
M  V30 21 O 8.358133 3.644098 -18.588637 0
M  V30 22 C 9.537596 5.805914 -8.385004 0
M  V30 23 N 12.502765 9.105792 -3.418161 0
M  V30 24 C 11.394578 7.011010 -7.139517 0
M  V30 25 C 10.035970 7.313109 -10.714255 0
M  V30 26 C 8.764234 5.590224 -9.540799 0
M  V30 27 C 9.013249 6.340491 -10.707991 0
M  V30 28 C 12.460650 7.780128 -3.012077 0
M  V30 29 C 6.968849 5.165371 -17.340389 0
M  V30 30 H 9.086598 4.643661 -13.018672 0
M  V30 31 H 6.433183 5.064947 -14.013002 0
M  V30 32 H 10.015125 6.390540 -5.570654 0
M  V30 33 H 9.784072 8.034926 -6.104727 0
M  V30 34 H 7.994449 7.021368 -14.305654 0
M  V30 35 H 9.121295 5.973546 -15.112185 0
M  V30 36 H 11.588467 8.280457 -9.562941 0
M  V30 37 H 7.357716 5.417408 -11.754617 0
M  V30 38 H 7.709496 7.075848 -12.179556 0
M  V30 39 H 4.960886 7.167941 -19.258015 0
M  V30 40 H 6.662578 5.373090 -19.475613 0
M  V30 41 H 4.292113 7.990211 -17.011550 0
M  V30 42 H 11.775662 10.965880 -5.195346 0
M  V30 43 H 10.919199 9.865522 -6.204774 0
M  V30 44 H 8.813966 2.444665 -16.385046 0
M  V30 45 H 9.522593 3.994679 -16.010674 0
M  V30 46 H 5.324773 7.025357 -14.970400 0
M  V30 47 H 8.133741 3.216268 -14.110724 0
M  V30 48 H 6.767807 2.985322 -15.165010 0
M  V30 49 H 9.343012 5.227906 -7.494824 0
M  V30 50 H 12.076245 7.843255 -7.319480 0
M  V30 51 H 12.017306 6.134847 -6.959005 0
M  V30 52 H 10.223774 7.891301 -11.606541 0
M  V30 53 H 12.942307 7.431861 -2.110280 0
M  V30 END ATOM
M  V30 BEGIN BOND
M  V30 1 1 4 2
M  V30 2 1 6 2
M  V30 3 1 7 3
M  V30 4 1 8 1
M  V30 5 1 8 3
M  V30 6 1 10 1
M  V30 7 1 12 2
M  V30 8 1 13 11
M  V30 9 2 14 11
M  V30 10 1 16 6
M  V30 11 1 17 15
M  V30 12 2 18 7
M  V30 13 1 18 14
M  V30 14 1 19 9
M  V30 15 1 20 3
M  V30 16 1 20 17
M  V30 17 2 21 15
M  V30 18 2 22 19
M  V30 19 2 23 6
M  V30 20 1 24 4
M  V30 21 1 24 19
M  V30 22 2 25 9
M  V30 23 1 26 5
M  V30 24 1 26 22
M  V30 25 1 27 10
M  V30 26 1 27 25
M  V30 27 2 27 26
M  V30 28 2 28 12
M  V30 29 1 28 23
M  V30 30 1 29 7
M  V30 31 2 29 13
M  V30 32 1 29 15
M  V30 33 1 30 1
M  V30 34 1 3 31 CFG=1
M  V30 35 1 32 4
M  V30 36 1 33 4
M  V30 37 1 34 8
M  V30 38 1 35 8
M  V30 39 1 36 9
M  V30 40 1 37 10
M  V30 41 1 38 10
M  V30 42 1 39 11
M  V30 43 1 40 13
M  V30 44 1 41 14
M  V30 45 1 42 16
M  V30 46 1 43 16
M  V30 47 1 44 17
M  V30 48 1 45 17
M  V30 49 1 46 18
M  V30 50 1 47 20
M  V30 51 1 48 20
M  V30 52 1 49 22
M  V30 53 1 50 24
M  V30 54 1 51 24
M  V30 55 1 52 25
M  V30 56 1 53 28
M  V30 END BOND
M  V30 END CTAB
M  END
>  <i_epik_Tot_Q>  (1) 
0

>  <i_epik_Tot_abs_Q>  (1) 
0

>  <i_i_glide_confnum>  (1) 
352

>  <i_i_glide_lignum>  (1) 
126

>  <i_i_glide_posenum>  (1) 
152

>  <i_i_glide_rotatable_bonds>  (1) 
7

>  <i_lp_mmshare_version>  (1) 
72125

>  <i_m_source_file_index>  (1) 
77

>  <i_f3d_flags>  (1) 
0

>  <num_sample>  (1) 
100

>  <b_lp_Chiralities_Consistent>  (1) 
1

>  <r_epik_Charging_Adjusted_Penalty>  (1) 
1.3366453936174523

>  <r_epik_Ionization_Penalty>  (1) 
1.3374163863907844

>  <r_epik_Ionization_Penalty_Charging>  (1) 
0

>  <r_epik_Ionization_Penalty_Neutral>  (1) 
1.3374163863907844

>  <r_epik_State_Penalty>  (1) 
1.3366453936174523

>  <r_glide_ring_energy>  (1) 
0.92034752558819388

>  <r_i_docking_score>  (1) 
-4.5650625060730068

>  <r_i_glide_ecoul>  (1) 
0.70250690558016315

>  <r_i_glide_eff_state_penalty>  (1) 
1.3366453936174523

>  <r_i_glide_einternal>  (1) 
8.5196431805276287

>  <r_i_glide_emodel>  (1) 
-52.787817410502889

>  <r_i_glide_emodel_strain>  (1) 
0.27878474169217071

>  <r_i_glide_energy>  (1) 
-41.647624955913223

>  <r_i_glide_erotb>  (1) 
0.75709287640511513

>  <r_i_glide_esite>  (1) 
-0.056603144644954362

>  <r_i_glide_evdw>  (1) 
-42.350131861493388

>  <r_i_glide_gscore>  (1) 
-5.9017078996904591

>  <r_i_glide_gscore_strain>  (1) 
0

>  <r_i_glide_hbond>  (1) 
0

>  <r_i_glide_ligand_efficiency>  (1) 
-0.1574159484852761

>  <r_i_glide_ligand_efficiency_ln>  (1) 
-1.0452835538936103

>  <r_i_glide_ligand_efficiency_sa>  (1) 
-0.48363166716261041

>  <r_i_glide_lipo>  (1) 
-1.9094333382015263

>  <r_i_glide_metal>  (1) 
-0

>  <r_i_glide_rewards>  (1) 
-2.6806337360114485

>  <r_lp_Energy>  (1) 
25.694416999999998

>  <r_lp_tautomer_probability>  (1) 
0.99994999147066566

>  <s_epik_cmdline>  (1) 
J2VwaWtfcHl0aG9uJywgJy1waHQnLCAnMS4wJywgJy1waCcsICc3LjQnLCAnLXRuJywgJzgnLCAnLW1hJywgJzUwMCcsICctaW1hZScsICc8aW5maWxlLm1hZT4nLCAnLW9tYWUnLCAnPG91dGZpbGUubWFlPic=

>  <s_epik_input>  (1) 
W2NIXTFbY0hdW2NIXVtjSF1jKGMxMilDKD1PKVtDSDJdW0NIMl1bQ0BIXTJbQ0gyXVtOSF1bQ0gyXWMoYyhGKVtjSF0zKVtjSF1bY0hdYzNbQ0gyXVtDSDJdbjRjKFtOSDJdKW5bY0hdbjQ=

>  <s_glide_docking_method>  (1) 
confgen

>  <s_i_glide_gridfile>  (1) 
gpcr_drd2_6luq_protein_autoprepared_prepared

>  <s_lp_Force_Field>  (1) 
S-OPLS

>  <s_lp_Variant>  (1) 
DiffSBDD_76-3

>  <s_m_source_file>  (1) 
generated_generic_title2_ligand_DiffSBDD_2026-06-23_prepared.sdf

>  <GenAI_Model>  (1) 
DiffSBDD

>  <Protein>  (1) 
generic_title2

$$$$
DiffSBDD_78
     RDKit          3D

  0  0  0  0  0  0  0  0  0  0999 V3000
M  V30 BEGIN CTAB
M  V30 COUNTS 81 85 0 0 1
M  V30 BEGIN ATOM
M  V30 1 C 9.666670 5.987666 -7.843871 0 CFG=2
M  V30 2 C 8.542571 5.085073 -8.377675 0
M  V30 3 C 6.624058 3.254421 -12.882607 0 CFG=1
M  V30 4 C 6.003091 5.354825 -14.617342 0 CFG=2
M  V30 5 C 9.417047 6.410662 -6.385449 0
M  V30 6 N 4.914584 6.601195 -16.516968 0 CHG=1
M  V30 7 C 7.412280 4.723248 -14.714688 0 CFG=1
M  V30 8 C 7.744386 5.456807 -12.308477 0 CFG=1
M  V30 9 N 9.769868 7.242913 -8.626439 0 CFG=1 CHG=1
M  V30 10 C 9.925409 8.356972 -7.687912 0
M  V30 11 N 7.764968 6.798050 -11.639336 0 CFG=2 CHG=1
M  V30 12 C 5.698836 4.534547 -10.899723 0
M  V30 13 C 5.763631 6.720604 -15.299477 0
M  V30 14 C 4.525156 7.031329 -18.890224 0
M  V30 15 O 5.523890 5.316592 -13.255684 0
M  V30 16 C 6.778740 7.763678 -12.175450 0
M  V30 17 C 5.166978 7.457251 -20.228689 0 CFG=1
M  V30 18 C 7.966648 2.587105 -13.129578 0
M  V30 19 C 6.385642 4.667976 -12.295925 0 CFG=2
M  V30 20 F 5.550291 8.731012 -20.127605 0
M  V30 21 C 9.289717 7.927363 -6.386424 0
M  V30 22 C 4.827890 5.713611 -10.417240 0
M  V30 23 O 6.687655 6.390668 -18.045873 0
M  V30 24 C 8.329034 5.491877 -13.751895 0
M  V30 25 C 6.414038 6.590342 -20.477160 0 CFG=1
M  V30 26 C 10.265998 6.695640 -11.018290 0
M  V30 27 C 5.591500 7.220791 -17.795703 0 CFG=2
M  V30 28 C 10.785622 7.286105 -9.706194 0
M  V30 29 C 9.089476 7.485690 -11.616963 0
M  V30 30 C 4.198330 7.418341 -21.420864 0
M  V30 31 C 7.372378 6.632073 -19.273022 0
M  V30 32 C 7.239145 3.280126 -14.262841 0 CFG=1
M  V30 33 F 6.057393 5.323954 -20.701293 0
M  V30 34 H 10.611347 5.443147 -7.887001 0
M  V30 35 H 8.434831 4.191496 -7.766059 0
M  V30 36 H 7.577206 5.590220 -8.374538 0
M  V30 37 H 8.737141 4.746746 -9.391446 0
M  V30 38 H 5.775300 2.581637 -12.783997 0
M  V30 39 H 5.375410 4.673115 -15.145374 0
M  V30 40 H 10.239372 6.088979 -5.744019 0
M  V30 41 H 8.497730 5.990214 -5.985010 0
M  V30 42 H 4.723985 5.624081 -16.688979 0
M  V30 43 H 7.797119 4.745270 -15.735468 0
M  V30 44 H 8.389736 4.833760 -11.701316 0
M  V30 45 H 10.976918 8.607475 -7.536235 0
M  V30 46 H 9.394972 9.190251 -8.123996 0
M  V30 47 H 6.440937 4.289569 -10.142306 0
M  V30 48 H 5.037998 3.669625 -10.914197 0
M  V30 49 H 5.250484 7.396521 -14.616922 0
M  V30 50 H 6.711740 7.201666 -15.540305 0
M  V30 51 H 4.200129 5.991160 -18.928962 0
M  V30 52 H 3.659952 7.654314 -18.657027 0
M  V30 53 H 7.020773 7.990215 -13.209570 0
M  V30 54 H 5.749801 7.423542 -12.146611 0
M  V30 55 H 6.800487 8.690593 -11.598176 0
M  V30 56 H 7.978717 1.498952 -13.149797 0
M  V30 57 H 8.888984 3.025450 -12.759587 0
M  V30 58 H 9.775384 8.395833 -5.536214 0
M  V30 59 H 8.235995 8.210873 -6.384697 0
M  V30 60 H 4.170734 5.479218 -9.586243 0
M  V30 61 H 4.175424 6.072221 -11.185020 0
M  V30 62 H 5.375403 6.569855 -10.094867 0
M  V30 63 H 9.342646 5.087717 -13.770654 0
M  V30 64 H 8.408088 6.501836 -14.129832 0
M  V30 65 H 6.935536 6.919298 -21.376550 0
M  V30 66 H 10.075456 5.637296 -10.894998 0
M  V30 67 H 11.083973 6.740697 -11.738923 0
M  V30 68 H 5.775407 8.273673 -17.599886 0
M  V30 69 H 11.700337 6.790426 -9.381831 0
M  V30 70 H 11.071153 8.321955 -9.901243 0
M  V30 71 H 9.359857 7.795385 -12.624997 0
M  V30 72 H 8.978191 8.423214 -11.070241 0
M  V30 73 H 3.784526 6.422280 -21.581330 0
M  V30 74 H 3.375544 8.119023 -21.276635 0
M  V30 75 H 4.706429 7.708919 -22.340593 0
M  V30 76 H 7.879342 7.590229 -19.221011 0
M  V30 77 H 8.157555 5.884877 -19.391553 0
M  V30 78 H 6.773073 2.633457 -15.004030 0
M  V30 79 H 8.846035 7.396782 -9.021159 0
M  V30 80 H 7.466948 6.689581 -10.670453 0
M  V30 81 H 4.035885 7.068998 -16.346639 0
M  V30 END ATOM
M  V30 BEGIN BOND
M  V30 1 1 2 1
M  V30 2 1 5 1
M  V30 3 1 7 4
M  V30 4 1 9 1
M  V30 5 1 10 9
M  V30 6 1 11 8
M  V30 7 1 13 4
M  V30 8 1 13 6
M  V30 9 1 15 4
M  V30 10 1 16 11
M  V30 11 1 17 14
M  V30 12 1 18 3
M  V30 13 1 19 3
M  V30 14 1 19 8
M  V30 15 1 19 12 CFG=1
M  V30 16 1 19 15
M  V30 17 1 17 20 CFG=1
M  V30 18 1 21 5
M  V30 19 1 21 10
M  V30 20 1 22 12
M  V30 21 1 24 7
M  V30 22 1 24 8
M  V30 23 1 25 17
M  V30 24 1 27 6
M  V30 25 1 27 14
M  V30 26 1 27 23
M  V30 27 1 28 9
M  V30 28 1 28 26
M  V30 29 1 29 11
M  V30 30 1 29 26
M  V30 31 1 30 17
M  V30 32 1 31 23
M  V30 33 1 31 25
M  V30 34 1 32 3
M  V30 35 1 32 7
M  V30 36 1 32 18
M  V30 37 1 33 25
M  V30 38 1 1 34 CFG=1
M  V30 39 1 35 2
M  V30 40 1 36 2
M  V30 41 1 37 2
M  V30 42 1 3 38 CFG=3
M  V30 43 1 4 39 CFG=3
M  V30 44 1 40 5
M  V30 45 1 41 5
M  V30 46 1 42 6
M  V30 47 1 7 43 CFG=3
M  V30 48 1 8 44 CFG=1
M  V30 49 1 45 10
M  V30 50 1 46 10
M  V30 51 1 47 12
M  V30 52 1 48 12
M  V30 53 1 49 13
M  V30 54 1 50 13
M  V30 55 1 51 14
M  V30 56 1 52 14
M  V30 57 1 53 16
M  V30 58 1 54 16
M  V30 59 1 55 16
M  V30 60 1 56 18
M  V30 61 1 57 18
M  V30 62 1 58 21
M  V30 63 1 59 21
M  V30 64 1 60 22
M  V30 65 1 61 22
M  V30 66 1 62 22
M  V30 67 1 63 24
M  V30 68 1 64 24
M  V30 69 1 25 65 CFG=3
M  V30 70 1 66 26
M  V30 71 1 67 26
M  V30 72 1 27 68 CFG=1
M  V30 73 1 69 28
M  V30 74 1 70 28
M  V30 75 1 71 29
M  V30 76 1 72 29
M  V30 77 1 73 30
M  V30 78 1 74 30
M  V30 79 1 75 30
M  V30 80 1 76 31
M  V30 81 1 77 31
M  V30 82 1 32 78 CFG=3
M  V30 83 1 9 79 CFG=3
M  V30 84 1 11 80 CFG=1
M  V30 85 1 81 6
M  V30 END BOND
M  V30 END CTAB
M  END
>  <i_epik_Tot_Q>  (1) 
3

>  <i_epik_Tot_abs_Q>  (1) 
3

>  <i_i_glide_confnum>  (1) 
451

>  <i_i_glide_lignum>  (1) 
134

>  <i_i_glide_posenum>  (1) 
93

>  <i_i_glide_rotatable_bonds>  (1) 
9

>  <i_lp_mmshare_version>  (1) 
72125

>  <i_m_source_file_index>  (1) 
79

>  <i_f3d_flags>  (1) 
0

>  <num_sample>  (1) 
100

>  <b_lp_Chiralities_Consistent>  (1) 
1

>  <r_epik_Charging_Adjusted_Penalty>  (1) 
1.7942086838225126

>  <r_epik_Ionization_Penalty>  (1) 
0.94562311220168549

>  <r_epik_Ionization_Penalty_Charging>  (1) 
0.94562311220168382

>  <r_epik_Ionization_Penalty_Neutral>  (1) 
1.710257484888175e-15

>  <r_epik_State_Penalty>  (1) 
0.84858557162082893

>  <r_glide_ring_energy>  (1) 
0

>  <r_i_docking_score>  (1) 
-4.5590415719428297

>  <r_i_glide_ecoul>  (1) 
-7.3919644473224384

>  <r_i_glide_eff_state_penalty>  (1) 
0.84858557162082893

>  <r_i_glide_einternal>  (1) 
18.818352967542193

>  <r_i_glide_emodel>  (1) 
-34.255912165448912

>  <r_i_glide_emodel_strain>  (1) 
1.880247039030678

>  <r_i_glide_energy>  (1) 
-30.329017525165497

>  <r_i_glide_erotb>  (1) 
0.72404097212868179

>  <r_i_glide_esite>  (1) 
-0.19735604739757748

>  <r_i_glide_evdw>  (1) 
-22.937053077843057

>  <r_i_glide_gscore>  (1) 
-5.4076271435636585

>  <r_i_glide_gscore_strain>  (1) 
0

>  <r_i_glide_hbond>  (1) 
-0.33269221507481661

>  <r_i_glide_ligand_efficiency>  (1) 
-0.13815277490735847

>  <r_i_glide_ligand_efficiency_ln>  (1) 
-1.0139072401461624

>  <r_i_glide_ligand_efficiency_sa>  (1) 
-0.44312976829953832

>  <r_i_glide_lipo>  (1) 
-1.7059863883582069

>  <r_i_glide_metal>  (1) 
-0

>  <r_i_glide_rewards>  (1) 
-1.6399861438712213

>  <r_lp_Energy>  (1) 
74.691324999999992

>  <s_epik_Chemistry_Notes>  (1) 
This compound contains an acetal/aminal-like group ( X-CH(R)-Y where X, Y are N, S, or O) that may be acid/base labile, releasing an aldehyde.

>  <s_epik_cmdline>  (1) 
J2VwaWtfcHl0aG9uJywgJy1waHQnLCAnMS4wJywgJy1waCcsICc3LjQnLCAnLXRuJywgJzgnLCAnLW1hJywgJzUwMCcsICctaW1hZScsICc8aW5maWxlLm1hZT4nLCAnLW9tYWUnLCAnPG91dGZpbGUubWFlPic=

>  <s_epik_input>  (1) 
W0NIM11bQ0BASF0xW0NIMl1bQ0gyXVtDSDJdTjFbQ0gyXVtDSDJdW0NIMl1OKFtDSDNdKVtDQEBIXTJbQ0gyXVtDQEBIXShbQ0BASF0oW0NIMl0zKVtDQEBIXTNbQ0BAXTI0W0NIMl1bQ0gzXSlbQ0BASF0oTzQpW0NIMl1bTkhdW0NASF0oW0NIMl1bQ0BdNShGKVtDSDNdKU9bQ0gyXVtDQEhdNUY=

>  <s_glide_docking_method>  (1) 
confgen

>  <s_i_glide_gridfile>  (1) 
gpcr_drd2_6luq_protein_autoprepared_prepared

>  <s_lp_Force_Field>  (1) 
S-OPLS

>  <s_lp_Variant>  (1) 
DiffSBDD_78-6

>  <s_m_source_file>  (1) 
generated_generic_title2_ligand_DiffSBDD_2026-06-23_prepared.sdf

>  <GenAI_Model>  (1) 
DiffSBDD

>  <Protein>  (1) 
generic_title2

$$$$
DiffSBDD_78
     RDKit          3D

  0  0  0  0  0  0  0  0  0  0999 V3000
M  V30 BEGIN CTAB
M  V30 COUNTS 80 84 0 0 1
M  V30 BEGIN ATOM
M  V30 1 C 10.589985 8.551536 -6.505381 0 CFG=2
M  V30 2 C 11.843901 9.414444 -6.772176 0
M  V30 3 C 5.446607 5.966127 -12.632808 0 CFG=1
M  V30 4 C 6.813165 3.508237 -12.993312 0 CFG=2
M  V30 5 C 10.752582 7.731995 -5.224959 0
M  V30 6 N 7.561683 1.249160 -13.654526 0
M  V30 7 C 6.486276 3.975686 -11.564479 0 CFG=1
M  V30 8 C 7.842428 6.079871 -12.000896 0 CFG=1
M  V30 9 N 10.329033 7.531010 -7.542912 0 CFG=2 CHG=1
M  V30 10 C 11.173207 6.379455 -7.181598 0
M  V30 11 N 9.223171 6.516237 -12.343692 0 CFG=2 CHG=1
M  V30 12 C 7.105052 7.007227 -14.307347 0
M  V30 13 C 7.984268 2.519391 -13.092953 0
M  V30 14 C 6.536111 0.002245 -15.445796 0
M  V30 15 O 7.097135 4.661835 -13.808573 0
M  V30 16 C 10.140884 5.489155 -12.865605 0
M  V30 17 C 6.398916 -0.184378 -16.966115 0 CFG=1
M  V30 18 C 5.058484 6.142959 -11.141729 0
M  V30 19 C 6.871836 5.951369 -13.208480 0 CFG=2
M  V30 20 F 5.645934 0.799750 -17.450913 0
M  V30 21 C 11.202711 6.345296 -5.658017 0
M  V30 22 C 6.086568 7.011060 -15.459084 0
M  V30 23 O 8.542432 1.246405 -15.762840 0
M  V30 24 C 7.693822 4.824124 -11.075015 0
M  V30 25 C 7.775480 -0.071562 -17.635218 0 CFG=1
M  V30 26 C 9.818739 6.957147 -9.904122 0
M  V30 27 C 7.318395 1.273214 -15.094357 0 CFG=2
M  V30 28 C 10.446412 7.976425 -8.950001 0
M  V30 29 C 9.851921 7.439790 -11.363798 0
M  V30 30 C 5.676193 -1.495634 -17.313969 0
M  V30 31 C 8.469943 1.219548 -17.182151 0
M  V30 32 C 5.242812 4.789926 -11.731913 0 CFG=1
M  V30 33 F 8.552611 -1.113353 -17.327832 0
M  V30 34 H 9.714241 9.190160 -6.427908 0
M  V30 35 H 11.997216 10.131826 -5.964531 0
M  V30 36 H 12.744421 8.805361 -6.843257 0
M  V30 37 H 11.775258 9.988037 -7.692972 0
M  V30 38 H 4.681354 6.053865 -13.394033 0
M  V30 39 H 5.913019 3.048722 -13.407533 0
M  V30 40 H 9.775491 7.589837 -4.785025 0
M  V30 41 H 11.401911 8.192918 -4.478521 0
M  V30 42 H 8.270450 0.547709 -13.463214 0
M  V30 43 H 6.180552 3.190190 -10.879654 0
M  V30 44 H 7.473509 6.955698 -11.473692 0
M  V30 45 H 10.835389 5.440354 -7.619858 0
M  V30 46 H 12.175387 6.597462 -7.535607 0
M  V30 47 H 7.141504 7.990281 -13.850195 0
M  V30 48 H 8.083183 6.825912 -14.750989 0
M  V30 49 H 8.458557 2.347806 -12.129037 0
M  V30 50 H 8.761370 2.955458 -13.708058 0
M  V30 51 H 7.094784 -0.810206 -15.006260 0
M  V30 52 H 5.558640 0.033883 -14.960588 0
M  V30 53 H 10.487626 4.810147 -12.087530 0
M  V30 54 H 9.676114 4.913434 -13.662573 0
M  V30 55 H 11.004680 5.990247 -13.302858 0
M  V30 56 H 5.775569 6.390226 -10.385025 0
M  V30 57 H 4.067017 6.357014 -10.784974 0
M  V30 58 H 10.505017 5.607812 -5.271586 0
M  V30 59 H 12.175392 6.072345 -5.265513 0
M  V30 60 H 6.418288 7.671379 -16.260282 0
M  V30 61 H 5.960666 6.014017 -15.881539 0
M  V30 62 H 5.109736 7.371901 -15.138992 0
M  V30 63 H 7.530637 5.108760 -10.036935 0
M  V30 64 H 8.598172 4.220949 -11.053465 0
M  V30 65 H 7.672962 -0.081810 -18.720134 0
M  V30 66 H 8.801894 6.790198 -9.568406 0
M  V30 67 H 10.305891 5.990631 -9.819505 0
M  V30 68 H 6.761882 2.166080 -15.382446 0
M  V30 69 H 11.490715 8.150095 -9.217011 0
M  V30 70 H 9.921613 8.927322 -9.059244 0
M  V30 71 H 10.886286 7.608075 -11.659876 0
M  V30 72 H 9.341011 8.400582 -11.437679 0
M  V30 73 H 6.223716 -2.364476 -16.947374 0
M  V30 74 H 4.680967 -1.527244 -16.869036 0
M  V30 75 H 5.559283 -1.608833 -18.391737 0
M  V30 76 H 7.936481 2.101243 -17.540076 0
M  V30 77 H 9.480052 1.271592 -17.589118 0
M  V30 78 H 4.377783 4.193802 -11.986616 0
M  V30 79 H 9.366701 7.242896 -7.406644 0
M  V30 80 H 9.072593 7.112028 -13.145571 0
M  V30 END ATOM
M  V30 BEGIN BOND
M  V30 1 1 2 1
M  V30 2 1 5 1
M  V30 3 1 7 4
M  V30 4 1 9 1
M  V30 5 1 10 9
M  V30 6 1 11 8
M  V30 7 1 13 4
M  V30 8 1 13 6
M  V30 9 1 15 4
M  V30 10 1 16 11
M  V30 11 1 17 14
M  V30 12 1 18 3
M  V30 13 1 19 3
M  V30 14 1 19 8
M  V30 15 1 19 12 CFG=3
M  V30 16 1 19 15
M  V30 17 1 17 20 CFG=3
M  V30 18 1 21 5
M  V30 19 1 21 10
M  V30 20 1 22 12
M  V30 21 1 24 7
M  V30 22 1 24 8
M  V30 23 1 25 17
M  V30 24 1 27 6
M  V30 25 1 27 14
M  V30 26 1 27 23
M  V30 27 1 28 9
M  V30 28 1 28 26
M  V30 29 1 29 11
M  V30 30 1 29 26
M  V30 31 1 30 17
M  V30 32 1 31 23
M  V30 33 1 31 25
M  V30 34 1 32 3
M  V30 35 1 32 7
M  V30 36 1 32 18
M  V30 37 1 33 25
M  V30 38 1 1 34 CFG=1
M  V30 39 1 35 2
M  V30 40 1 36 2
M  V30 41 1 37 2
M  V30 42 1 3 38 CFG=3
M  V30 43 1 4 39 CFG=3
M  V30 44 1 40 5
M  V30 45 1 41 5
M  V30 46 1 42 6
M  V30 47 1 7 43 CFG=1
M  V30 48 1 8 44 CFG=1
M  V30 49 1 45 10
M  V30 50 1 46 10
M  V30 51 1 47 12
M  V30 52 1 48 12
M  V30 53 1 49 13
M  V30 54 1 50 13
M  V30 55 1 51 14
M  V30 56 1 52 14
M  V30 57 1 53 16
M  V30 58 1 54 16
M  V30 59 1 55 16
M  V30 60 1 56 18
M  V30 61 1 57 18
M  V30 62 1 58 21
M  V30 63 1 59 21
M  V30 64 1 60 22
M  V30 65 1 61 22
M  V30 66 1 62 22
M  V30 67 1 63 24
M  V30 68 1 64 24
M  V30 69 1 25 65 CFG=3
M  V30 70 1 66 26
M  V30 71 1 67 26
M  V30 72 1 27 68 CFG=1
M  V30 73 1 69 28
M  V30 74 1 70 28
M  V30 75 1 71 29
M  V30 76 1 72 29
M  V30 77 1 73 30
M  V30 78 1 74 30
M  V30 79 1 75 30
M  V30 80 1 76 31
M  V30 81 1 77 31
M  V30 82 1 32 78 CFG=3
M  V30 83 1 9 79 CFG=3
M  V30 84 1 11 80 CFG=3
M  V30 END BOND
M  V30 END CTAB
M  END
>  <i_epik_Tot_Q>  (1) 
2

>  <i_epik_Tot_abs_Q>  (1) 
2

>  <i_i_glide_confnum>  (1) 
1072

>  <i_i_glide_lignum>  (1) 
129

>  <i_i_glide_posenum>  (1) 
176

>  <i_i_glide_rotatable_bonds>  (1) 
9

>  <i_lp_mmshare_version>  (1) 
72125

>  <i_m_source_file_index>  (1) 
79

>  <i_f3d_flags>  (1) 
0

>  <num_sample>  (1) 
100

>  <b_lp_Chiralities_Consistent>  (1) 
1

>  <r_epik_Charging_Adjusted_Penalty>  (1) 
0.22182564166484353

>  <r_epik_Ionization_Penalty>  (1) 
0.22182564166592098

>  <r_epik_Ionization_Penalty_Charging>  (1) 
0.060182310347739972

>  <r_epik_Ionization_Penalty_Neutral>  (1) 
0.16164333131818101

>  <r_epik_State_Penalty>  (1) 
0.16164333131710357

>  <r_glide_ring_energy>  (1) 
0

>  <r_i_docking_score>  (1) 
-4.5588886889291382

>  <r_i_glide_ecoul>  (1) 
-4.103875275152304

>  <r_i_glide_eff_state_penalty>  (1) 
0.16164333131710357

>  <r_i_glide_einternal>  (1) 
9.6354447218035428

>  <r_i_glide_emodel>  (1) 
-32.092905303171442

>  <r_i_glide_emodel_strain>  (1) 
0.41257151826421534

>  <r_i_glide_energy>  (1) 
-26.521856701905786

>  <r_i_glide_erotb>  (1) 
0.726867567680611

>  <r_i_glide_esite>  (1) 
-0.032579194111913283

>  <r_i_glide_evdw>  (1) 
-22.417981426753482

>  <r_i_glide_gscore>  (1) 
-4.7205320202462415

>  <r_i_glide_gscore_strain>  (1) 
0

>  <r_i_glide_hbond>  (1) 
0

>  <r_i_glide_ligand_efficiency>  (1) 
-0.13814814208876178

>  <r_i_glide_ligand_efficiency_ln>  (1) 
-1.0138732397555035

>  <r_i_glide_ligand_efficiency_sa>  (1) 
-0.44311490837484474

>  <r_i_glide_lipo>  (1) 
-2.3138993119418791

>  <r_i_glide_metal>  (1) 
-0

>  <r_i_glide_rewards>  (1) 
-1.3644407192625398

>  <r_lp_Energy>  (1) 
67.377417999999992

>  <s_epik_Chemistry_Notes>  (1) 
This compound contains an acetal/aminal-like group ( X-CH(R)-Y where X, Y are N, S, or O) that may be acid/base labile, releasing an aldehyde.

>  <s_epik_cmdline>  (1) 
J2VwaWtfcHl0aG9uJywgJy1waHQnLCAnMS4wJywgJy1waCcsICc3LjQnLCAnLXRuJywgJzgnLCAnLW1hJywgJzUwMCcsICctaW1hZScsICc8aW5maWxlLm1hZT4nLCAnLW9tYWUnLCAnPG91dGZpbGUubWFlPic=

>  <s_epik_input>  (1) 
W0NIM11bQ0BASF0xW0NIMl1bQ0gyXVtDSDJdTjFbQ0gyXVtDSDJdW0NIMl1OKFtDSDNdKVtDQEBIXTJbQ0gyXVtDQEBIXShbQ0BASF0oW0NIMl0zKVtDQEBIXTNbQ0BAXTI0W0NIMl1bQ0gzXSlbQ0BASF0oTzQpW0NIMl1bTkhdW0NASF0oW0NIMl1bQ0BdNShGKVtDSDNdKU9bQ0gyXVtDQEhdNUY=

>  <s_glide_docking_method>  (1) 
confgen

>  <s_i_glide_gridfile>  (1) 
gpcr_drd2_6luq_protein_autoprepared_prepared

>  <s_lp_Force_Field>  (1) 
S-OPLS

>  <s_lp_Variant>  (1) 
DiffSBDD_78-1

>  <s_m_source_file>  (1) 
generated_generic_title2_ligand_DiffSBDD_2026-06-23_prepared.sdf

>  <GenAI_Model>  (1) 
DiffSBDD

>  <Protein>  (1) 
generic_title2

$$$$
DiffSBDD_71
     RDKit          3D

  0  0  0  0  0  0  0  0  0  0999 V3000
M  V30 BEGIN CTAB
M  V30 COUNTS 55 57 0 0 1
M  V30 BEGIN ATOM
M  V30 1 C 7.812719 6.343574 -12.936670 0 CFG=1
M  V30 2 O 5.547042 4.363036 -12.240513 0
M  V30 3 C 6.407804 5.687197 -19.152435 0 CFG=1
M  V30 4 C 5.995758 7.059909 -16.574816 0
M  V30 5 C 6.826472 4.023870 -12.742616 0
M  V30 6 C 11.505507 8.334610 -8.547454 0
M  V30 7 C 7.651374 5.131898 -16.973601 0
M  V30 8 N 7.285018 5.114972 -13.619896 0
M  V30 9 C 9.775412 5.773227 -7.847171 0
M  V30 10 O 10.175460 8.790227 -6.636519 0
M  V30 11 O 6.222716 6.860577 -19.906988 0
M  V30 12 C 6.356511 5.344573 -14.734015 0
M  V30 13 C 6.722170 7.125186 -12.165611 0
M  V30 14 C 4.927752 6.402734 -17.461637 0 CFG=2
M  V30 15 C 10.510181 6.494386 -6.996280 0
M  V30 16 C 10.991043 8.021032 -9.744065 0
M  V30 17 C 11.046379 7.851913 -7.221639 0 CFG=1
M  V30 18 C 7.763990 5.744679 -18.393988 0
M  V30 19 O 5.375411 5.353019 -18.290152 0
M  V30 20 O 4.975474 8.763832 -20.307112 0
M  V30 21 C 9.041594 6.087641 -12.035641 0
M  V30 22 C 6.989277 6.078675 -15.937821 0 CFG=2
M  V30 23 C 5.192690 7.748342 -19.648708 0
M  V30 24 C 9.375402 6.130569 -9.201998 0
M  V30 25 C 9.887552 7.096233 -10.036560 0
M  V30 26 O 9.338365 7.193349 -11.300270 0
M  V30 27 C 4.303023 7.368343 -18.444172 0
M  V30 28 O 9.665321 5.025305 -11.985024 0
M  V30 29 H 8.175395 7.032622 -13.690690 0
M  V30 30 H 5.644588 4.631926 -11.338636 0
M  V30 31 H 6.442531 4.869156 -19.872593 0
M  V30 32 H 5.510860 7.663369 -15.805774 0
M  V30 33 H 6.558730 7.782796 -17.153605 0
M  V30 34 H 7.501992 3.803982 -11.918402 0
M  V30 35 H 6.741530 3.103709 -13.322152 0
M  V30 36 H 12.319678 9.044446 -8.517792 0
M  V30 37 H 8.649966 4.883377 -16.612165 0
M  V30 38 H 7.128990 4.175809 -17.028557 0
M  V30 39 H 9.421976 4.820337 -7.487730 0
M  V30 40 H 9.317443 8.657952 -7.016893 0
M  V30 41 H 5.969385 4.390226 -15.081431 0
M  V30 42 H 5.480344 5.880531 -14.371250 0
M  V30 43 H 7.086263 8.104343 -11.852928 0
M  V30 44 H 5.836520 7.316409 -12.768353 0
M  V30 45 H 6.403990 6.601406 -11.264220 0
M  V30 46 H 4.150538 5.990228 -16.817556 0
M  V30 47 H 10.709696 6.078610 -6.018719 0
M  V30 48 H 11.432474 8.516439 -10.593994 0
M  V30 49 H 11.951882 7.879097 -6.619119 0
M  V30 50 H 8.142732 6.766955 -18.374750 0
M  V30 51 H 8.485569 5.178355 -18.983133 0
M  V30 52 H 7.775410 6.723496 -15.578157 0
M  V30 53 H 8.580181 5.526289 -9.610697 0
M  V30 54 H 4.019341 8.276135 -17.918205 0
M  V30 55 H 3.375410 6.931814 -18.785025 0
M  V30 END ATOM
M  V30 BEGIN BOND
M  V30 1 1 5 2
M  V30 2 1 8 1
M  V30 3 1 8 5
M  V30 4 1 11 3
M  V30 5 1 12 8
M  V30 6 1 13 1
M  V30 7 1 14 4
M  V30 8 2 15 9
M  V30 9 2 16 6
M  V30 10 1 17 6
M  V30 11 1 17 10
M  V30 12 1 17 15
M  V30 13 1 18 3
M  V30 14 1 18 7
M  V30 15 1 19 3
M  V30 16 1 19 14
M  V30 17 1 21 1
M  V30 18 1 22 4
M  V30 19 1 22 7
M  V30 20 1 22 12
M  V30 21 1 23 11
M  V30 22 2 23 20
M  V30 23 1 24 9
M  V30 24 1 25 16
M  V30 25 2 25 24
M  V30 26 1 26 21
M  V30 27 1 26 25
M  V30 28 1 27 14
M  V30 29 1 27 23
M  V30 30 2 28 21
M  V30 31 1 1 29 CFG=3
M  V30 32 1 30 2
M  V30 33 1 3 31 CFG=3
M  V30 34 1 32 4
M  V30 35 1 33 4
M  V30 36 1 34 5
M  V30 37 1 35 5
M  V30 38 1 36 6
M  V30 39 1 37 7
M  V30 40 1 38 7
M  V30 41 1 39 9
M  V30 42 1 40 10
M  V30 43 1 41 12
M  V30 44 1 42 12
M  V30 45 1 43 13
M  V30 46 1 44 13
M  V30 47 1 45 13
M  V30 48 1 14 46 CFG=1
M  V30 49 1 47 15
M  V30 50 1 48 16
M  V30 51 1 17 49 CFG=1
M  V30 52 1 50 18
M  V30 53 1 51 18
M  V30 54 1 22 52 CFG=1
M  V30 55 1 53 24
M  V30 56 1 54 27
M  V30 57 1 55 27
M  V30 END BOND
M  V30 END CTAB
M  END
>  <i_epik_Tot_Q>  (1) 
0

>  <i_epik_Tot_abs_Q>  (1) 
0

>  <i_i_glide_confnum>  (1) 
56

>  <i_i_glide_lignum>  (1) 
115

>  <i_i_glide_posenum>  (1) 
83

>  <i_i_glide_rotatable_bonds>  (1) 
9

>  <i_lp_mmshare_version>  (1) 
72125

>  <i_m_source_file_index>  (1) 
72

>  <i_f3d_flags>  (1) 
0

>  <num_sample>  (1) 
100

>  <b_lp_Chiralities_Consistent>  (1) 
1

>  <r_epik_Charging_Adjusted_Penalty>  (1) 
0

>  <r_epik_Ionization_Penalty>  (1) 
0.0080147773199130048

>  <r_epik_Ionization_Penalty_Charging>  (1) 
0

>  <r_epik_Ionization_Penalty_Neutral>  (1) 
0.0080147773199130048

>  <r_epik_State_Penalty>  (1) 
-0

>  <r_glide_ring_energy>  (1) 
0.62074138562282111

>  <r_i_docking_score>  (1) 
-4.5561055319339934

>  <r_i_glide_ecoul>  (1) 
-1.9728160847551004

>  <r_i_glide_eff_state_penalty>  (1) 
-0

>  <r_i_glide_einternal>  (1) 
5.0635085966701912

>  <r_i_glide_emodel>  (1) 
-41.845951633730486

>  <r_i_glide_emodel_strain>  (1) 
1.403199324673281

>  <r_i_glide_energy>  (1) 
-36.275748541807566

>  <r_i_glide_erotb>  (1) 
0.75718691864975285

>  <r_i_glide_esite>  (1) 
0

>  <r_i_glide_evdw>  (1) 
-34.302932457052464

>  <r_i_glide_gscore>  (1) 
-4.5561055319339934

>  <r_i_glide_gscore_strain>  (1) 
0

>  <r_i_glide_hbond>  (1) 
0

>  <r_i_glide_ligand_efficiency>  (1) 
-0.16271805471192832

>  <r_i_glide_ligand_efficiency_ln>  (1) 
-1.0516829298415864

>  <r_i_glide_ligand_efficiency_sa>  (1) 
-0.49410785046330236

>  <r_i_glide_lipo>  (1) 
-1.969454819094828

>  <r_i_glide_metal>  (1) 
-0

>  <r_i_glide_rewards>  (1) 
-1.3327685959230293

>  <r_lp_Energy>  (1) 
45.945371999999999

>  <r_lp_tautomer_probability>  (1) 
1

>  <s_epik_Chemistry_Notes>  (1) 
This compound has an ester and may undergo hydrolysis at high or low pH. This compound contains an acetal/aminal-like group ( X-CH(R)-Y where X, Y are N, S, or O) that may be acid/base labile, releasing an aldehyde.

>  <s_epik_cmdline>  (1) 
J2VwaWtfcHl0aG9uJywgJy1waHQnLCAnMS4wJywgJy1waCcsICc3LjQnLCAnLXRuJywgJzgnLCAnLW1hJywgJzUwMCcsICctaW1hZScsICc8aW5maWxlLm1hZT4nLCAnLW9tYWUnLCAnPG91dGZpbGUubWFlPic=

>  <s_epik_input>  (1) 
W09IXVtDQEBIXTFbQ0hdPVtDSF1DKD1bQ0hdW0NIXT1bQ0hdMSlPQyg9TylbQ0BIXShbQ0gzXSlOKFtDSDJdW09IXSlbQ0gyXVtDQEBIXShbQ0gyXVtDSDJdMilbQ0gyXVtDQEhdKE8zKVtDSDJdQyg9TylPW0NAQEhdMjM=

>  <s_glide_docking_method>  (1) 
confgen

>  <s_i_glide_gridfile>  (1) 
gpcr_drd2_6luq_protein_autoprepared_prepared

>  <s_lp_Force_Field>  (1) 
S-OPLS

>  <s_lp_Variant>  (1) 
DiffSBDD_71-1

>  <s_m_source_file>  (1) 
generated_generic_title2_ligand_DiffSBDD_2026-06-23_prepared.sdf

>  <GenAI_Model>  (1) 
DiffSBDD

>  <Protein>  (1) 
generic_title2

$$$$
DiffSBDD_64
     RDKit          3D

  0  0  0  0  0  0  0  0  0  0999 V3000
M  V30 BEGIN CTAB
M  V30 COUNTS 77 80 0 0 1
M  V30 BEGIN ATOM
M  V30 1 C 7.180936 6.002433 -15.903103 0
M  V30 2 C 9.043664 8.000169 -7.141474 0
M  V30 3 C 6.908149 6.085054 -18.386360 0 CFG=2
M  V30 4 C 8.144879 4.190941 -11.465002 0
M  V30 5 C 11.973900 6.306488 -6.649921 0
M  V30 6 C 5.339062 6.295450 -20.477986 0
M  V30 7 C 7.986450 4.941919 -12.765474 0 CFG=1
M  V30 8 O 10.489947 9.190097 -5.585060 0
M  V30 9 C 5.310911 7.929324 -18.523180 0
M  V30 10 C 6.943462 4.585572 -18.736912 0
M  V30 11 C 8.239267 5.193359 -10.316220 0
M  V30 12 C 11.591721 6.246394 -5.187454 0
M  V30 13 C 10.205946 6.780279 -5.317277 0
M  V30 14 C 4.656986 7.983324 -16.070420 0
M  V30 15 N 6.299917 6.337893 -17.057667 0 CFG=2 CHG=1
M  V30 16 C 5.329062 5.189010 -14.383143 0
M  V30 17 C 10.307244 7.975791 -6.277384 0 CFG=1
M  V30 18 C 6.171367 7.001578 -19.389713 0 CFG=1
M  V30 19 C 5.773465 7.721558 -17.074834 0 CFG=1
M  V30 20 C 9.137494 5.892832 -12.996837 0
M  V30 21 C 9.136133 6.910094 -11.870218 0
M  V30 22 C 8.999675 6.807503 -8.124810 0
M  V30 23 C 11.109794 7.343475 -9.456661 0
M  V30 24 C 11.730313 8.284055 -8.449259 0
M  V30 25 C 11.643223 7.774942 -7.003022 0 CFG=2
M  V30 26 S 7.775361 3.844541 -14.162543 0
M  V30 27 N 9.299514 6.216266 -10.570466 0 CFG=1 CHG=1
M  V30 28 C 9.579359 7.199658 -9.495223 0 CFG=1
M  V30 29 C 6.602688 4.798726 -15.157859 0 CFG=2
M  V30 30 H 7.254615 6.853419 -15.225618 0
M  V30 31 H 8.198035 5.786000 -16.236527 0
M  V30 32 H 8.176965 7.967785 -6.476184 0
M  V30 33 H 8.955313 8.950015 -7.670170 0
M  V30 34 H 7.939599 6.440789 -18.357470 0
M  V30 35 H 7.248035 3.590329 -11.327583 0
M  V30 36 H 9.010254 3.523827 -11.492531 0
M  V30 37 H 12.975406 5.990146 -6.784975 0
M  V30 38 H 11.401132 5.559149 -7.185997 0
M  V30 39 H 4.573115 5.648940 -20.046619 0
M  V30 40 H 4.832578 7.025282 -21.111954 0
M  V30 41 H 5.966183 5.688582 -21.132764 0
M  V30 42 H 7.096772 5.535256 -12.616609 0
M  V30 43 H 10.649753 9.872902 -6.217185 0
M  V30 44 H 4.260873 7.644904 -18.620837 0
M  V30 45 H 5.375400 8.966183 -18.846463 0
M  V30 46 H 7.398525 4.422675 -19.714372 0
M  V30 47 H 7.539660 4.021794 -18.018774 0
M  V30 48 H 5.943193 4.147485 -18.756049 0
M  V30 49 H 8.450073 4.623032 -9.413256 0
M  V30 50 H 7.268381 5.671559 -10.182089 0
M  V30 51 H 12.175773 6.919517 -4.562968 0
M  V30 52 H 11.636301 5.272884 -4.728402 0
M  V30 53 H 9.778016 6.983832 -4.385030 0
M  V30 54 H 9.564318 5.990262 -5.695322 0
M  V30 55 H 4.408298 9.036088 -15.985008 0
M  V30 56 H 3.754617 7.449790 -16.381164 0
M  V30 57 H 4.975391 7.716912 -15.064390 0
M  V30 58 H 4.575367 5.590244 -15.052647 0
M  V30 59 H 4.911354 4.340529 -13.839731 0
M  V30 60 H 5.472405 6.000594 -13.674109 0
M  V30 61 H 6.924274 7.604847 -19.900017 0
M  V30 62 H 6.575417 8.390185 -16.785029 0
M  V30 63 H 8.975431 6.390183 -13.939638 0
M  V30 64 H 10.091197 5.364602 -13.057811 0
M  V30 65 H 8.205596 7.481968 -11.868186 0
M  V30 66 H 9.938754 7.625252 -12.041533 0
M  V30 67 H 8.000217 6.390246 -8.170089 0
M  V30 68 H 9.515551 5.930125 -7.772271 0
M  V30 69 H 11.500414 7.596495 -10.442594 0
M  V30 70 H 11.519320 6.390274 -9.187516 0
M  V30 71 H 11.317082 9.285534 -8.545227 0
M  V30 72 H 12.786025 8.386733 -8.704976 0
M  V30 73 H 12.390122 8.390261 -6.501992 0
M  V30 74 H 9.137170 8.158227 -9.778185 0
M  V30 75 H 6.419737 4.055875 -15.915624 0
M  V30 76 H 10.143606 5.670290 -10.648348 0
M  V30 77 H 5.489791 5.735955 -17.001406 0
M  V30 END ATOM
M  V30 BEGIN BOND
M  V30 1 1 7 4
M  V30 2 1 10 3
M  V30 3 1 11 4
M  V30 4 1 12 5
M  V30 5 1 13 12
M  V30 6 1 15 1
M  V30 7 1 15 3
M  V30 8 1 17 2
M  V30 9 1 17 8 CFG=1
M  V30 10 1 17 13
M  V30 11 1 18 3
M  V30 12 1 18 6
M  V30 13 1 18 9
M  V30 14 1 19 9
M  V30 15 1 19 14
M  V30 16 1 19 15
M  V30 17 1 20 7
M  V30 18 1 21 20
M  V30 19 1 22 2
M  V30 20 1 24 23
M  V30 21 1 25 5
M  V30 22 1 25 17
M  V30 23 1 25 24
M  V30 24 1 26 7
M  V30 25 1 27 11
M  V30 26 1 27 21
M  V30 27 1 28 22
M  V30 28 1 28 23
M  V30 29 1 28 27
M  V30 30 1 29 1
M  V30 31 1 29 16
M  V30 32 1 29 26
M  V30 33 1 30 1
M  V30 34 1 31 1
M  V30 35 1 32 2
M  V30 36 1 33 2
M  V30 37 1 3 34 CFG=1
M  V30 38 1 35 4
M  V30 39 1 36 4
M  V30 40 1 37 5
M  V30 41 1 38 5
M  V30 42 1 39 6
M  V30 43 1 40 6
M  V30 44 1 41 6
M  V30 45 1 7 42 CFG=1
M  V30 46 1 43 8
M  V30 47 1 44 9
M  V30 48 1 45 9
M  V30 49 1 46 10
M  V30 50 1 47 10
M  V30 51 1 48 10
M  V30 52 1 49 11
M  V30 53 1 50 11
M  V30 54 1 51 12
M  V30 55 1 52 12
M  V30 56 1 53 13
M  V30 57 1 54 13
M  V30 58 1 55 14
M  V30 59 1 56 14
M  V30 60 1 57 14
M  V30 61 1 58 16
M  V30 62 1 59 16
M  V30 63 1 60 16
M  V30 64 1 18 61 CFG=3
M  V30 65 1 19 62 CFG=1
M  V30 66 1 63 20
M  V30 67 1 64 20
M  V30 68 1 65 21
M  V30 69 1 66 21
M  V30 70 1 67 22
M  V30 71 1 68 22
M  V30 72 1 69 23
M  V30 73 1 70 23
M  V30 74 1 71 24
M  V30 75 1 72 24
M  V30 76 1 25 73 CFG=1
M  V30 77 1 28 74 CFG=3
M  V30 78 1 29 75 CFG=3
M  V30 79 1 27 76 CFG=3
M  V30 80 1 15 77 CFG=1
M  V30 END BOND
M  V30 END CTAB
M  END
>  <i_epik_Tot_Q>  (1) 
2

>  <i_epik_Tot_abs_Q>  (1) 
2

>  <i_i_glide_confnum>  (1) 
113

>  <i_i_glide_lignum>  (1) 
105

>  <i_i_glide_posenum>  (1) 
228

>  <i_i_glide_rotatable_bonds>  (1) 
6

>  <i_lp_mmshare_version>  (1) 
72125

>  <i_m_source_file_index>  (1) 
65

>  <i_f3d_flags>  (1) 
0

>  <num_sample>  (1) 
100

>  <b_lp_Chiralities_Consistent>  (1) 
1

>  <r_epik_Charging_Adjusted_Penalty>  (1) 
0.010385271147369776

>  <r_epik_Ionization_Penalty>  (1) 
0.010385491156522124

>  <r_epik_Ionization_Penalty_Charging>  (1) 
0.010385271147369776

>  <r_epik_Ionization_Penalty_Neutral>  (1) 
2.2000915234807092e-07

>  <r_epik_State_Penalty>  (1) 
-0

>  <r_glide_ring_energy>  (1) 
0

>  <r_i_docking_score>  (1) 
-4.5543603653344071

>  <r_i_glide_ecoul>  (1) 
-4.1108986896577431

>  <r_i_glide_eff_state_penalty>  (1) 
-0

>  <r_i_glide_einternal>  (1) 
23.665550169190261

>  <r_i_glide_emodel>  (1) 
-3.0141539335505954

>  <r_i_glide_emodel_strain>  (1) 
0.77169684411202866

>  <r_i_glide_energy>  (1) 
-11.590099856846958

>  <r_i_glide_erotb>  (1) 
0.5496323063178965

>  <r_i_glide_esite>  (1) 
-0.068894065216508482

>  <r_i_glide_evdw>  (1) 
-7.4792011671892142

>  <r_i_glide_gscore>  (1) 
-4.5543603653344071

>  <r_i_glide_gscore_strain>  (1) 
0

>  <r_i_glide_hbond>  (1) 
0

>  <r_i_glide_ligand_efficiency>  (1) 
-0.15704690914946232

>  <r_i_glide_ligand_efficiency_ln>  (1) 
-1.0428330350473445

>  <r_i_glide_ligand_efficiency_sa>  (1) 
-0.4824978614018498

>  <r_i_glide_lipo>  (1) 
-2.6313544946276717

>  <r_i_glide_metal>  (1) 
-0

>  <r_i_glide_rewards>  (1) 
-1.4131492500000007

>  <r_lp_Energy>  (1) 
49.546199999999999

>  <r_lp_tautomer_probability>  (1) 
1

>  <s_epik_cmdline>  (1) 
J2VwaWtfcHl0aG9uJywgJy1waHQnLCAnMS4wJywgJy1waCcsICc3LjQnLCAnLXRuJywgJzgnLCAnLW1hJywgJzUwMCcsICctaW1hZScsICc8aW5maWxlLm1hZT4nLCAnLW9tYWUnLCAnPG91dGZpbGUubWFlPic=

>  <s_epik_input>  (1) 
W0NIM11bQ0BIXTFbQ0gyXVtDQEBIXShbQ0gzXSlOKFtDQEhdMVtDSDNdKVtDSDJdW0NASF0oW0NIM10pU1tDSF0yW0NIMl1bQ0gyXU4oW0NIMl1bQ0gyXTIpW0NAQEhdKFtDSDJdW0NIMl0zKVtDSDJdW0NIMl1bQ0BASF0oW0NAQF0zNFtPSF0pW0NIMl1bQ0gyXVtDSDJdNA==

>  <s_glide_docking_method>  (1) 
confgen

>  <s_i_glide_gridfile>  (1) 
gpcr_drd2_6luq_protein_autoprepared_prepared

>  <s_lp_Force_Field>  (1) 
S-OPLS

>  <s_lp_Variant>  (1) 
DiffSBDD_64-4

>  <s_m_source_file>  (1) 
generated_generic_title2_ligand_DiffSBDD_2026-06-23_prepared.sdf

>  <GenAI_Model>  (1) 
DiffSBDD

>  <Protein>  (1) 
generic_title2

$$$$
DiffSBDD_89
     RDKit          3D

  0  0  0  0  0  0  0  0  0  0999 V3000
M  V30 BEGIN CTAB
M  V30 COUNTS 79 82 0 0 1
M  V30 BEGIN ATOM
M  V30 1 C 11.641356 7.900110 -8.594140 0
M  V30 2 O 10.829154 2.521373 -19.875895 0
M  V30 3 C 12.974956 5.728801 -17.341002 0
M  V30 4 C 10.293407 1.656590 -17.722866 0
M  V30 5 C 10.740419 2.724407 -18.665886 0
M  V30 6 C 11.079419 4.073422 -18.050481 0 CFG=2
M  V30 7 F 9.775441 6.898129 -5.643165 0
M  V30 8 C 10.311841 7.062766 -11.982785 0
M  V30 9 C 6.279355 5.725637 -13.076242 0
M  V30 10 C 7.475186 4.924302 -9.601324 0
M  V30 11 F 11.775341 6.235099 -5.921203 0
M  V30 12 F 11.339244 8.358736 -5.778209 0
M  V30 13 C 13.490607 3.951269 -19.020779 0
M  V30 14 C 8.002855 4.064697 -15.585808 0 CFG=2
M  V30 15 C 9.549356 6.400554 -9.755648 0
M  V30 16 N 9.127175 3.599331 -16.483940 0
M  V30 17 C 5.018277 -0.009878 -14.491868 0
M  V30 18 C 12.618276 4.294186 -17.789189 0
M  V30 19 O 12.656747 8.621821 -8.040377 0
M  V30 20 C 8.375382 5.622535 -11.719150 0
M  V30 21 C 8.508342 5.661457 -10.366071 0
M  V30 22 C 7.221753 4.820114 -12.249022 0 CFG=1
M  V30 23 C 9.693956 6.434498 -8.352169 0
M  V30 24 C 10.741656 7.178933 -7.767561 0
M  V30 25 C 9.266332 6.310763 -12.551716 0
M  V30 26 C 10.069064 4.505857 -16.926739 0
M  V30 27 O 10.111766 5.652433 -16.498939 0
M  V30 28 C 7.260431 3.200166 -14.459039 0 CFG=1
M  V30 29 C 6.976537 4.750715 -16.522276 0
M  V30 30 C 11.495402 7.866850 -9.993942 0
M  V30 31 C 10.910889 7.186937 -6.252284 0
M  V30 32 C 6.931608 1.700309 -14.716557 0 CFG=2
M  V30 33 F 6.572964 1.562457 -15.990601 0
M  V30 34 O 13.081026 3.422321 -16.785044 0
M  V30 35 C 9.085578 2.198917 -16.965177 0
M  V30 36 C 6.542306 4.526560 -10.817716 0
M  V30 37 C 7.663744 3.465091 -12.953107 0 CFG=1
M  V30 38 C 9.105663 3.038989 -12.658976 0
M  V30 39 C 5.778267 1.146611 -13.845242 0
M  V30 40 C 10.454787 7.116907 -10.577287 0
M  V30 41 H 12.584208 6.468801 -18.041167 0
M  V30 42 H 12.585244 5.967979 -16.351886 0
M  V30 43 H 14.054840 5.876471 -17.285031 0
M  V30 44 H 10.048581 0.739589 -18.258788 0
M  V30 45 H 11.118330 1.435230 -17.046394 0
M  V30 46 H 10.836728 4.776915 -18.849179 0
M  V30 47 H 10.998883 7.590224 -12.620375 0
M  V30 48 H 5.350998 5.219099 -13.339595 0
M  V30 49 H 6.003576 6.616721 -12.510459 0
M  V30 50 H 6.748831 6.084710 -13.989515 0
M  V30 51 H 7.846393 4.069925 -9.050824 0
M  V30 52 H 6.975769 5.590220 -8.906793 0
M  V30 53 H 13.190410 4.523603 -19.899302 0
M  V30 54 H 14.543549 4.167154 -18.836427 0
M  V30 55 H 13.440730 2.893172 -19.282817 0
M  V30 56 H 8.414259 4.876016 -14.994868 0
M  V30 57 H 4.296075 -0.409732 -13.783873 0
M  V30 58 H 4.466504 0.307129 -15.376797 0
M  V30 59 H 5.698300 -0.809681 -14.784245 0
M  V30 60 H 12.563547 8.723428 -7.103596 0
M  V30 61 H 9.008831 5.887220 -7.723550 0
M  V30 62 H 9.149718 6.270431 -13.613864 0
M  V30 63 H 6.251609 3.598475 -14.493976 0
M  V30 64 H 6.138287 5.190412 -15.984615 0
M  V30 65 H 7.431233 5.564531 -17.087552 0
M  V30 66 H 6.576157 4.046172 -17.252297 0
M  V30 67 H 12.186545 8.412684 -10.619881 0
M  V30 68 H 7.794476 1.059726 -14.547536 0
M  V30 69 H 12.699462 3.671996 -15.953438 0
M  V30 70 H 9.003797 1.528588 -16.124362 0
M  V30 71 H 8.205300 2.076876 -17.596907 0
M  V30 72 H 5.659283 5.161815 -10.725427 0
M  V30 73 H 6.137215 3.524243 -10.700251 0
M  V30 74 H 7.103423 2.724100 -12.395774 0
M  V30 75 H 9.803280 3.683857 -13.184909 0
M  V30 76 H 9.336620 3.095001 -11.594656 0
M  V30 77 H 9.281637 2.005319 -12.953627 0
M  V30 78 H 6.184256 0.787786 -12.899184 0
M  V30 79 H 5.063690 1.926803 -13.585087 0
M  V30 END ATOM
M  V30 BEGIN BOND
M  V30 1 2 5 2
M  V30 2 1 5 4
M  V30 3 1 6 5
M  V30 4 1 16 14
M  V30 5 1 18 3
M  V30 6 1 18 6
M  V30 7 1 18 13
M  V30 8 1 19 1
M  V30 9 1 21 10
M  V30 10 1 21 15
M  V30 11 2 21 20
M  V30 12 1 22 9 CFG=3
M  V30 13 1 22 20
M  V30 14 2 23 15
M  V30 15 2 24 1
M  V30 16 1 24 23
M  V30 17 2 25 8
M  V30 18 1 25 20
M  V30 19 1 26 6
M  V30 20 1 26 16
M  V30 21 2 27 26
M  V30 22 1 28 14
M  V30 23 1 29 14
M  V30 24 1 30 1
M  V30 25 1 31 7
M  V30 26 1 31 11
M  V30 27 1 31 12
M  V30 28 1 31 24
M  V30 29 1 32 28
M  V30 30 1 33 32
M  V30 31 1 34 18
M  V30 32 1 35 4
M  V30 33 1 35 16
M  V30 34 1 36 10
M  V30 35 1 36 22
M  V30 36 1 37 22
M  V30 37 1 37 28
M  V30 38 1 38 37
M  V30 39 1 39 17
M  V30 40 1 39 32
M  V30 41 1 40 8
M  V30 42 1 40 15
M  V30 43 2 40 30
M  V30 44 1 41 3
M  V30 45 1 42 3
M  V30 46 1 43 3
M  V30 47 1 44 4
M  V30 48 1 45 4
M  V30 49 1 6 46 CFG=3
M  V30 50 1 47 8
M  V30 51 1 48 9
M  V30 52 1 49 9
M  V30 53 1 50 9
M  V30 54 1 51 10
M  V30 55 1 52 10
M  V30 56 1 53 13
M  V30 57 1 54 13
M  V30 58 1 55 13
M  V30 59 1 14 56 CFG=1
M  V30 60 1 57 17
M  V30 61 1 58 17
M  V30 62 1 59 17
M  V30 63 1 60 19
M  V30 64 1 61 23
M  V30 65 1 62 25
M  V30 66 1 28 63 CFG=1
M  V30 67 1 64 29
M  V30 68 1 65 29
M  V30 69 1 66 29
M  V30 70 1 67 30
M  V30 71 1 32 68 CFG=3
M  V30 72 1 69 34
M  V30 73 1 70 35
M  V30 74 1 71 35
M  V30 75 1 72 36
M  V30 76 1 73 36
M  V30 77 1 37 74 CFG=1
M  V30 78 1 75 38
M  V30 79 1 76 38
M  V30 80 1 77 38
M  V30 81 1 78 39
M  V30 82 1 79 39
M  V30 END BOND
M  V30 END CTAB
M  END
>  <i_epik_Tot_Q>  (1) 
0

>  <i_epik_Tot_abs_Q>  (1) 
0

>  <i_i_glide_confnum>  (1) 
508

>  <i_i_glide_lignum>  (1) 
165

>  <i_i_glide_posenum>  (1) 
151

>  <i_i_glide_rotatable_bonds>  (1) 
10

>  <i_lp_mmshare_version>  (1) 
72125

>  <i_m_source_file_index>  (1) 
90

>  <i_f3d_flags>  (1) 
0

>  <num_sample>  (1) 
100

>  <b_lp_Chiralities_Consistent>  (1) 
1

>  <r_epik_Charging_Adjusted_Penalty>  (1) 
0

>  <r_epik_Ionization_Penalty>  (1) 
0.063976020685543381

>  <r_epik_Ionization_Penalty_Charging>  (1) 
0

>  <r_epik_Ionization_Penalty_Neutral>  (1) 
0.063976020685543381

>  <r_epik_State_Penalty>  (1) 
-0

>  <r_glide_ring_energy>  (1) 
0

>  <r_i_docking_score>  (1) 
-4.5503322162928841

>  <r_i_glide_ecoul>  (1) 
-0.55235298072701899

>  <r_i_glide_eff_state_penalty>  (1) 
-0

>  <r_i_glide_einternal>  (1) 
26.088087985535161

>  <r_i_glide_emodel>  (1) 
-19.764308648734502

>  <r_i_glide_emodel_strain>  (1) 
5.920642962322205

>  <r_i_glide_energy>  (1) 
-33.439502995935889

>  <r_i_glide_erotb>  (1) 
0.30496708774431369

>  <r_i_glide_esite>  (1) 
0

>  <r_i_glide_evdw>  (1) 
-32.887150015208867

>  <r_i_glide_gscore>  (1) 
-4.5503322162928841

>  <r_i_glide_gscore_strain>  (1) 
0.48016074058055125

>  <r_i_glide_hbond>  (1) 
-0.070198095117282214

>  <r_i_glide_ligand_efficiency>  (1) 
-0.1137583054073221

>  <r_i_glide_ligand_efficiency_ln>  (1) 
-0.97045195143596774

>  <r_i_glide_ligand_efficiency_sa>  (1) 
-0.38904793196244492

>  <r_i_glide_lipo>  (1) 
-1.8246137521901693

>  <r_i_glide_metal>  (1) 
-0

>  <r_i_glide_rewards>  (1) 
-1.7134377494408011

>  <r_lp_Energy>  (1) 
56.555591

>  <r_lp_tautomer_probability>  (1) 
1

>  <s_epik_cmdline>  (1) 
J2VwaWtfcHl0aG9uJywgJy1waHQnLCAnMS4wJywgJy1waCcsICc3LjQnLCAnLXRuJywgJzgnLCAnLW1hJywgJzUwMCcsICctaW1hZScsICc8aW5maWxlLm1hZT4nLCAnLW9tYWUnLCAnPG91dGZpbGUubWFlPic=

>  <s_epik_input>  (1) 
RkMoRikoRiljKFtjSF0xKWMoW09IXSlbY0hdYzJbY0hdW2NIXWMoYzNjMTIpW0NAXShbQ0gzXSkoW0NIMl1bQ0gyXTMpW0NASF0oW0NIM10pW0NASF0oW0NASF0oRilbQ0gyXVtDSDNdKVtDQEhdKFtDSDNdKU4oW0NIMl1bQ0gyXUM0PU8pQyg9TylbQ0BASF00QyhbQ0gzXSkoW0NIM10pW09IXQ==

>  <s_glide_docking_method>  (1) 
confgen

>  <s_i_glide_gridfile>  (1) 
gpcr_drd2_6luq_protein_autoprepared_prepared

>  <s_lp_Force_Field>  (1) 
S-OPLS

>  <s_lp_Variant>  (1) 
DiffSBDD_89-2

>  <s_m_source_file>  (1) 
generated_generic_title2_ligand_DiffSBDD_2026-06-23_prepared.sdf

>  <GenAI_Model>  (1) 
DiffSBDD

>  <Protein>  (1) 
generic_title2

$$$$
DiffSBDD_78
     RDKit          3D

  0  0  0  0  0  0  0  0  0  0999 V3000
M  V30 BEGIN CTAB
M  V30 COUNTS 80 84 0 0 1
M  V30 BEGIN ATOM
M  V30 1 C 10.026155 8.387555 -7.622575 0 CFG=2
M  V30 2 C 11.501482 8.819625 -7.763596 0
M  V30 3 C 6.716979 2.678601 -13.576083 0 CFG=1
M  V30 4 C 7.087350 4.374646 -15.756904 0 CFG=2
M  V30 5 C 9.696455 7.916619 -6.213984 0
M  V30 6 N 6.342698 6.195880 -17.259388 0
M  V30 7 C 8.307368 3.598790 -15.204572 0 CFG=1
M  V30 8 C 7.915238 4.905137 -13.062503 0 CFG=1
M  V30 9 N 9.649114 7.258562 -8.487333 0 CFG=2 CHG=1
M  V30 10 C 9.946566 6.020738 -7.746483 0
M  V30 11 N 7.981277 6.402519 -12.951494 0 CFG=1 CHG=1
M  V30 12 C 5.377426 4.406396 -12.395298 0
M  V30 13 C 7.459697 5.671655 -16.474442 0
M  V30 14 C 6.655182 4.553538 -19.140794 0
M  V30 15 O 6.175439 4.703678 -14.686030 0
M  V30 16 C 6.780164 7.153429 -12.514727 0
M  V30 17 C 6.714651 4.468983 -20.673513 0 CFG=1
M  V30 18 C 7.924465 1.866086 -13.158814 0
M  V30 19 C 6.537763 4.203187 -13.392889 0 CFG=2
M  V30 20 F 5.533467 4.850788 -21.164942 0
M  V30 21 C 9.760456 6.390117 -6.270701 0
M  V30 22 C 5.725620 3.990149 -10.955869 0
M  V30 23 O 7.523295 6.789565 -19.197683 0
M  V30 24 C 8.964378 4.479321 -14.119810 0
M  V30 25 C 7.798551 5.428935 -21.197374 0 CFG=1
M  V30 26 C 9.262824 6.422954 -10.777392 0
M  V30 27 C 6.459844 6.028799 -18.710783 0 CFG=2
M  V30 28 C 10.103865 7.340953 -9.891088 0
M  V30 29 C 9.208084 6.874749 -12.248747 0
M  V30 30 C 6.939879 3.024116 -21.147844 0
M  V30 31 C 7.605918 6.842272 -20.618974 0
M  V30 32 C 7.760954 2.322083 -14.597333 0 CFG=1
M  V30 33 F 9.015180 4.988892 -20.866691 0
M  V30 34 H 9.354313 9.190802 -7.892825 0
M  V30 35 H 11.745939 9.598677 -7.041080 0
M  V30 36 H 12.185057 7.988450 -7.588666 0
M  V30 37 H 11.714171 9.230226 -8.751211 0
M  V30 38 H 5.783457 2.125075 -13.662553 0
M  V30 39 H 6.575777 3.717626 -16.455360 0
M  V30 40 H 8.676369 8.227755 -5.985142 0
M  V30 41 H 10.352302 8.339547 -5.452890 0
M  V30 42 H 5.481161 5.770296 -16.930058 0
M  V30 43 H 9.006210 3.351958 -16.003117 0
M  V30 44 H 8.228783 4.484119 -12.112041 0
M  V30 45 H 9.292361 5.203839 -8.053525 0
M  V30 46 H 10.975656 5.715340 -7.930525 0
M  V30 47 H 4.986252 5.414844 -12.405097 0
M  V30 48 H 4.521846 3.835886 -12.753711 0
M  V30 49 H 8.342666 5.530663 -17.099899 0
M  V30 50 H 7.746626 6.393096 -15.718696 0
M  V30 51 H 7.577525 4.161166 -18.711792 0
M  V30 52 H 5.826699 3.954238 -18.762995 0
M  V30 53 H 6.397569 6.802863 -11.559199 0
M  V30 54 H 7.008402 8.210836 -12.385032 0
M  V30 55 H 5.998028 7.099449 -13.271128 0
M  V30 56 H 8.688012 2.321042 -12.534343 0
M  V30 57 H 7.763416 0.808619 -12.958501 0
M  V30 58 H 8.819789 5.990308 -5.896629 0
M  V30 59 H 10.566246 5.990295 -5.654169 0
M  V30 60 H 4.975385 4.339065 -10.260490 0
M  V30 61 H 5.775409 2.907118 -10.854811 0
M  V30 62 H 6.662851 4.415191 -10.603123 0
M  V30 63 H 9.776680 3.990225 -13.591931 0
M  V30 64 H 9.436068 5.331421 -14.609334 0
M  V30 65 H 7.779656 5.466345 -22.286799 0
M  V30 66 H 8.250355 6.390183 -10.380383 0
M  V30 67 H 9.642642 5.403802 -10.699210 0
M  V30 68 H 5.547305 6.428226 -19.156710 0
M  V30 69 H 11.168800 7.125659 -9.985968 0
M  V30 70 H 9.959912 8.373743 -10.212739 0
M  V30 71 H 10.107391 6.534477 -12.763132 0
M  V30 72 H 9.238027 7.963420 -12.318421 0
M  V30 73 H 7.878725 2.621743 -20.764865 0
M  V30 74 H 6.138589 2.366175 -20.809007 0
M  V30 75 H 6.975875 2.967721 -22.235915 0
M  V30 76 H 6.703485 7.304437 -21.021219 0
M  V30 77 H 8.440309 7.485624 -20.899253 0
M  V30 78 H 7.474606 1.562440 -15.322969 0
M  V30 79 H 8.633889 7.313089 -8.538569 0
M  V30 80 H 8.095665 6.709950 -13.906437 0
M  V30 END ATOM
M  V30 BEGIN BOND
M  V30 1 1 2 1
M  V30 2 1 5 1
M  V30 3 1 7 4
M  V30 4 1 9 1
M  V30 5 1 10 9
M  V30 6 1 11 8
M  V30 7 1 13 4
M  V30 8 1 13 6
M  V30 9 1 15 4
M  V30 10 1 16 11
M  V30 11 1 17 14
M  V30 12 1 18 3
M  V30 13 1 19 3
M  V30 14 1 19 8
M  V30 15 1 19 12 CFG=1
M  V30 16 1 19 15
M  V30 17 1 17 20 CFG=3
M  V30 18 1 21 5
M  V30 19 1 21 10
M  V30 20 1 22 12
M  V30 21 1 24 7
M  V30 22 1 24 8
M  V30 23 1 25 17
M  V30 24 1 27 6
M  V30 25 1 27 14
M  V30 26 1 27 23
M  V30 27 1 28 9
M  V30 28 1 28 26
M  V30 29 1 29 11
M  V30 30 1 29 26
M  V30 31 1 30 17
M  V30 32 1 31 23
M  V30 33 1 31 25
M  V30 34 1 32 3
M  V30 35 1 32 7
M  V30 36 1 32 18
M  V30 37 1 33 25
M  V30 38 1 1 34 CFG=3
M  V30 39 1 35 2
M  V30 40 1 36 2
M  V30 41 1 37 2
M  V30 42 1 3 38 CFG=3
M  V30 43 1 4 39 CFG=3
M  V30 44 1 40 5
M  V30 45 1 41 5
M  V30 46 1 42 6
M  V30 47 1 7 43 CFG=3
M  V30 48 1 8 44 CFG=1
M  V30 49 1 45 10
M  V30 50 1 46 10
M  V30 51 1 47 12
M  V30 52 1 48 12
M  V30 53 1 49 13
M  V30 54 1 50 13
M  V30 55 1 51 14
M  V30 56 1 52 14
M  V30 57 1 53 16
M  V30 58 1 54 16
M  V30 59 1 55 16
M  V30 60 1 56 18
M  V30 61 1 57 18
M  V30 62 1 58 21
M  V30 63 1 59 21
M  V30 64 1 60 22
M  V30 65 1 61 22
M  V30 66 1 62 22
M  V30 67 1 63 24
M  V30 68 1 64 24
M  V30 69 1 25 65 CFG=3
M  V30 70 1 66 26
M  V30 71 1 67 26
M  V30 72 1 27 68 CFG=3
M  V30 73 1 69 28
M  V30 74 1 70 28
M  V30 75 1 71 29
M  V30 76 1 72 29
M  V30 77 1 73 30
M  V30 78 1 74 30
M  V30 79 1 75 30
M  V30 80 1 76 31
M  V30 81 1 77 31
M  V30 82 1 32 78 CFG=3
M  V30 83 1 9 79 CFG=3
M  V30 84 1 11 80 CFG=3
M  V30 END BOND
M  V30 END CTAB
M  END
>  <i_epik_Tot_Q>  (1) 
2

>  <i_epik_Tot_abs_Q>  (1) 
2

>  <i_i_glide_confnum>  (1) 
881

>  <i_i_glide_lignum>  (1) 
131

>  <i_i_glide_posenum>  (1) 
79

>  <i_i_glide_rotatable_bonds>  (1) 
9

>  <i_lp_mmshare_version>  (1) 
72125

>  <i_m_source_file_index>  (1) 
79

>  <i_f3d_flags>  (1) 
0

>  <num_sample>  (1) 
100

>  <b_lp_Chiralities_Consistent>  (1) 
1

>  <r_epik_Charging_Adjusted_Penalty>  (1) 
0.22182564166484353

>  <r_epik_Ionization_Penalty>  (1) 
0.22182564166592098

>  <r_epik_Ionization_Penalty_Charging>  (1) 
0.060182310347739972

>  <r_epik_Ionization_Penalty_Neutral>  (1) 
0.16164333131818101

>  <r_epik_State_Penalty>  (1) 
0.16164333131710357

>  <r_glide_ring_energy>  (1) 
0

>  <r_i_docking_score>  (1) 
-4.5418890787881763

>  <r_i_glide_ecoul>  (1) 
-5.4782148910401727

>  <r_i_glide_eff_state_penalty>  (1) 
0.16164333131710357

>  <r_i_glide_einternal>  (1) 
10.328065467045942

>  <r_i_glide_emodel>  (1) 
-40.187660689862945

>  <r_i_glide_emodel_strain>  (1) 
0.82447060939577455

>  <r_i_glide_energy>  (1) 
-35.582979353326785

>  <r_i_glide_erotb>  (1) 
0.726867567680611

>  <r_i_glide_esite>  (1) 
-0.10673336589021841

>  <r_i_glide_evdw>  (1) 
-30.104764462286614

>  <r_i_glide_gscore>  (1) 
-4.7035324101052796

>  <r_i_glide_gscore_strain>  (1) 
0

>  <r_i_glide_hbond>  (1) 
-0.20000000000000001

>  <r_i_glide_ligand_efficiency>  (1) 
-0.13763300238752049

>  <r_i_glide_ligand_efficiency_ln>  (1) 
-1.010092614479424

>  <r_i_glide_ligand_efficiency_sa>  (1) 
-0.44146258009836958

>  <r_i_glide_lipo>  (1) 
-1.5561357679437009

>  <r_i_glide_metal>  (1) 
-0

>  <r_i_glide_rewards>  (1) 
-1.2405603871816142

>  <r_lp_Energy>  (1) 
71.261048000000002

>  <s_epik_Chemistry_Notes>  (1) 
This compound contains an acetal/aminal-like group ( X-CH(R)-Y where X, Y are N, S, or O) that may be acid/base labile, releasing an aldehyde.

>  <s_epik_cmdline>  (1) 
J2VwaWtfcHl0aG9uJywgJy1waHQnLCAnMS4wJywgJy1waCcsICc3LjQnLCAnLXRuJywgJzgnLCAnLW1hJywgJzUwMCcsICctaW1hZScsICc8aW5maWxlLm1hZT4nLCAnLW9tYWUnLCAnPG91dGZpbGUubWFlPic=

>  <s_epik_input>  (1) 
W0NIM11bQ0BASF0xW0NIMl1bQ0gyXVtDSDJdTjFbQ0gyXVtDSDJdW0NIMl1OKFtDSDNdKVtDQEBIXTJbQ0gyXVtDQEBIXShbQ0BASF0oW0NIMl0zKVtDQEBIXTNbQ0BAXTI0W0NIMl1bQ0gzXSlbQ0BASF0oTzQpW0NIMl1bTkhdW0NASF0oW0NIMl1bQ0BdNShGKVtDSDNdKU9bQ0gyXVtDQEhdNUY=

>  <s_glide_docking_method>  (1) 
confgen

>  <s_i_glide_gridfile>  (1) 
gpcr_drd2_6luq_protein_autoprepared_prepared

>  <s_lp_Force_Field>  (1) 
S-OPLS

>  <s_lp_Variant>  (1) 
DiffSBDD_78-3

>  <s_m_source_file>  (1) 
generated_generic_title2_ligand_DiffSBDD_2026-06-23_prepared.sdf

>  <GenAI_Model>  (1) 
DiffSBDD

>  <Protein>  (1) 
generic_title2

$$$$
DiffSBDD_6
     RDKit          3D

  0  0  0  0  0  0  0  0  0  0999 V3000
M  V30 BEGIN CTAB
M  V30 COUNTS 72 73 0 0 1
M  V30 BEGIN ATOM
M  V30 1 C 11.667841 7.255976 -4.381835 0
M  V30 2 O 6.550966 2.672123 -18.633591 0
M  V30 3 C 7.426557 1.897342 -15.714944 0 CFG=1
M  V30 4 C 11.824888 8.100321 -2.135940 0
M  V30 5 C 8.890909 5.122626 -10.855633 0
M  V30 6 C 12.574616 9.164314 -10.071348 0
M  V30 7 C 11.550648 7.317714 -9.025769 0 CFG=1
M  V30 8 C 8.981911 5.102408 -14.803740 0
M  V30 9 C 6.544553 0.331292 -13.887272 0
M  V30 10 C 9.024732 4.562897 -12.286154 0
M  V30 11 C 9.764897 6.369761 -10.587993 0
M  V30 12 C 7.494995 0.492874 -15.083232 0
M  V30 13 C 12.003478 7.473835 -7.560725 0
M  V30 14 O 8.578521 8.384842 -6.385440 0
M  V30 15 F 9.367983 1.355532 -16.913352 0
M  V30 16 C 10.953601 8.222617 -6.711016 0 CFG=1
M  V30 17 C 10.254984 6.504633 -9.121607 0 CFG=2
M  V30 18 O 7.904398 2.877927 -14.803495 0
M  V30 19 C 7.587733 1.769567 -18.307898 0
M  V30 20 C 8.748159 3.577908 -16.846215 0
M  V30 21 C 8.511451 5.505051 -13.391467 0
M  V30 22 C 12.552709 9.558093 -5.224577 0
M  V30 23 C 9.591239 7.502199 -6.811959 0 CFG=2
M  V30 24 O 12.485633 7.503924 -3.240892 0
M  V30 25 C 11.405078 8.523872 -5.249505 0 CFG=2
M  V30 26 C 9.197439 7.169356 -8.254890 0
M  V30 27 C 8.108363 4.071218 -15.541222 0 CFG=2
M  V30 28 O 11.368230 8.594532 -9.610270 0
M  V30 29 C 8.282875 2.124297 -16.977814 0 CFG=1
M  V30 30 H 10.731707 6.783989 -4.081483 0
M  V30 31 H 12.175132 6.485995 -4.955197 0
M  V30 32 H 6.933212 3.513433 -18.833482 0
M  V30 33 H 6.389096 2.131705 -15.947613 0
M  V30 34 H 12.544223 8.299384 -1.340436 0
M  V30 35 H 11.375363 9.054986 -2.409115 0
M  V30 36 H 11.059633 7.438393 -1.727255 0
M  V30 37 H 7.845365 5.343727 -10.630885 0
M  V30 38 H 9.181277 4.326610 -10.170062 0
M  V30 39 H 12.375094 10.183937 -10.383616 0
M  V30 40 H 13.352635 9.190225 -9.307898 0
M  V30 41 H 12.973369 8.615576 -10.924429 0
M  V30 42 H 12.306123 6.790277 -9.596530 0
M  V30 43 H 10.021680 4.778354 -14.759517 0
M  V30 44 H 8.987610 5.990123 -15.430384 0
M  V30 45 H 6.613325 -0.670639 -13.464052 0
M  V30 46 H 6.782484 1.044542 -13.097520 0
M  V30 47 H 5.506736 0.486633 -14.181680 0
M  V30 48 H 8.490793 3.614628 -12.348717 0
M  V30 49 H 10.073955 4.320418 -12.461612 0
M  V30 50 H 10.617128 6.376587 -11.263054 0
M  V30 51 H 9.208012 7.263693 -10.874964 0
M  V30 52 H 7.246607 -0.255433 -15.836649 0
M  V30 53 H 8.515510 0.281391 -14.762117 0
M  V30 54 H 12.963117 7.985067 -7.546350 0
M  V30 55 H 12.175944 6.485264 -7.141462 0
M  V30 56 H 7.736480 7.995575 -6.622239 0
M  V30 57 H 10.817266 9.190412 -7.189152 0
M  V30 58 H 10.457101 5.514125 -8.713602 0
M  V30 59 H 7.175802 0.760530 -18.260331 0
M  V30 60 H 8.308625 1.774893 -19.126315 0
M  V30 61 H 9.836430 3.609747 -16.776911 0
M  V30 62 H 8.473537 4.210365 -17.689287 0
M  V30 63 H 8.883737 6.507131 -13.181707 0
M  V30 64 H 7.425009 5.578723 -13.352888 0
M  V30 65 H 13.474295 9.190240 -5.666964 0
M  V30 66 H 12.270491 10.451149 -5.780422 0
M  V30 67 H 12.784198 9.870454 -4.206995 0
M  V30 68 H 9.583073 6.591151 -6.213445 0
M  V30 69 H 10.576745 9.045356 -4.779398 0
M  V30 70 H 8.975388 8.116223 -8.746358 0
M  V30 71 H 8.310641 6.533382 -8.252879 0
M  V30 72 H 7.127875 4.501228 -15.752996 0
M  V30 END ATOM
M  V30 BEGIN BOND
M  V30 1 1 10 5
M  V30 2 1 11 5
M  V30 3 1 12 3
M  V30 4 1 12 9
M  V30 5 1 13 7
M  V30 6 1 16 13
M  V30 7 1 17 7
M  V30 8 1 17 11
M  V30 9 1 18 3
M  V30 10 1 19 2
M  V30 11 1 21 8
M  V30 12 1 21 10
M  V30 13 1 23 14
M  V30 14 1 23 16
M  V30 15 1 24 1
M  V30 16 1 24 4
M  V30 17 1 25 1
M  V30 18 1 25 16
M  V30 19 1 25 22
M  V30 20 1 26 17
M  V30 21 1 26 23
M  V30 22 1 27 8
M  V30 23 1 27 18
M  V30 24 1 27 20
M  V30 25 1 28 6
M  V30 26 1 28 7
M  V30 27 1 29 3
M  V30 28 1 29 15 CFG=1
M  V30 29 1 29 19
M  V30 30 1 29 20
M  V30 31 1 30 1
M  V30 32 1 31 1
M  V30 33 1 32 2
M  V30 34 1 3 33 CFG=3
M  V30 35 1 34 4
M  V30 36 1 35 4
M  V30 37 1 36 4
M  V30 38 1 37 5
M  V30 39 1 38 5
M  V30 40 1 39 6
M  V30 41 1 40 6
M  V30 42 1 41 6
M  V30 43 1 7 42 CFG=3
M  V30 44 1 43 8
M  V30 45 1 44 8
M  V30 46 1 45 9
M  V30 47 1 46 9
M  V30 48 1 47 9
M  V30 49 1 48 10
M  V30 50 1 49 10
M  V30 51 1 50 11
M  V30 52 1 51 11
M  V30 53 1 52 12
M  V30 54 1 53 12
M  V30 55 1 54 13
M  V30 56 1 55 13
M  V30 57 1 56 14
M  V30 58 1 16 57 CFG=3
M  V30 59 1 17 58 CFG=1
M  V30 60 1 59 19
M  V30 61 1 60 19
M  V30 62 1 61 20
M  V30 63 1 62 20
M  V30 64 1 63 21
M  V30 65 1 64 21
M  V30 66 1 65 22
M  V30 67 1 66 22
M  V30 68 1 67 22
M  V30 69 1 23 68 CFG=1
M  V30 70 1 25 69 CFG=1
M  V30 71 1 70 26
M  V30 72 1 71 26
M  V30 73 1 27 72 CFG=3
M  V30 END BOND
M  V30 END CTAB
M  END
>  <i_epik_Tot_Q>  (1) 
0

>  <i_epik_Tot_abs_Q>  (1) 
0

>  <i_i_glide_confnum>  (1) 
208

>  <i_i_glide_lignum>  (1) 
9

>  <i_i_glide_posenum>  (1) 
395

>  <i_i_glide_rotatable_bonds>  (1) 
14

>  <i_lp_mmshare_version>  (1) 
72125

>  <i_m_source_file_index>  (1) 
7

>  <i_f3d_flags>  (1) 
0

>  <num_sample>  (1) 
100

>  <b_lp_Chiralities_Consistent>  (1) 
1

>  <r_epik_Charging_Adjusted_Penalty>  (1) 
0

>  <r_epik_Ionization_Penalty>  (1) 
7.0602717257541721e-07

>  <r_epik_Ionization_Penalty_Charging>  (1) 
0

>  <r_epik_Ionization_Penalty_Neutral>  (1) 
7.0602717257541721e-07

>  <r_epik_State_Penalty>  (1) 
-0

>  <r_glide_ring_energy>  (1) 
0

>  <r_i_docking_score>  (1) 
-4.5195800349813817

>  <r_i_glide_ecoul>  (1) 
-3.8477732327564915

>  <r_i_glide_eff_state_penalty>  (1) 
-0

>  <r_i_glide_einternal>  (1) 
10.189465274681883

>  <r_i_glide_emodel>  (1) 
-27.329409470579002

>  <r_i_glide_emodel_strain>  (1) 
1.5054992816274293

>  <r_i_glide_energy>  (1) 
-29.40259607524176

>  <r_i_glide_erotb>  (1) 
1.0157505286842679

>  <r_i_glide_esite>  (1) 
0

>  <r_i_glide_evdw>  (1) 
-25.554822842485269

>  <r_i_glide_gscore>  (1) 
-4.5195800349813817

>  <r_i_glide_gscore_strain>  (1) 
0

>  <r_i_glide_hbond>  (1) 
-0.16255375373285297

>  <r_i_glide_ligand_efficiency>  (1) 
-0.15584758741315111

>  <r_i_glide_ligand_efficiency_ln>  (1) 
-1.0348692213495825

>  <r_i_glide_ligand_efficiency_sa>  (1) 
-0.47881316505197002

>  <r_i_glide_lipo>  (1) 
-2.4424258237325165

>  <r_i_glide_metal>  (1) 
-0

>  <r_i_glide_rewards>  (1) 
-1.0754438591625433

>  <r_lp_Energy>  (1) 
8.972643999999999

>  <r_lp_tautomer_probability>  (1) 
1

>  <s_epik_cmdline>  (1) 
J2VwaWtfcHl0aG9uJywgJy1waHQnLCAnMS4wJywgJy1waCcsICc3LjQnLCAnLXRuJywgJzgnLCAnLW1hJywgJzUwMCcsICctaW1hZScsICc8aW5maWxlLm1hZT4nLCAnLW9tYWUnLCAnPG91dGZpbGUubWFlPic=

>  <s_epik_input>  (1) 
W0NIM11PW0NIMl1bQ0BASF0oW0NIM10pW0NAQEhdKFtDSDJdW0NAQEhdMU9bQ0gzXSlbQ0BASF0oW09IXSlbQ0gyXVtDQEhdMVtDSDJdW0NIMl1bQ0gyXVtDSDJdW0NIMl1bQ0BASF0oW0NIMl0yKU9bQ0BIXShbQ0gyXVtDSDNdKVtDQEBdMihGKVtDSDJdW09IXQ==

>  <s_glide_docking_method>  (1) 
confgen

>  <s_i_glide_gridfile>  (1) 
gpcr_drd2_6luq_protein_autoprepared_prepared

>  <s_lp_Force_Field>  (1) 
S-OPLS

>  <s_lp_Variant>  (1) 
DiffSBDD_6-1

>  <s_m_source_file>  (1) 
generated_generic_title2_ligand_DiffSBDD_2026-06-23_prepared.sdf

>  <GenAI_Model>  (1) 
DiffSBDD

>  <Protein>  (1) 
generic_title2

$$$$
DiffSBDD_6
     RDKit          3D

  0  0  0  0  0  0  0  0  0  0999 V3000
M  V30 BEGIN CTAB
M  V30 COUNTS 72 73 0 0 1
M  V30 BEGIN ATOM
M  V30 1 C 11.580391 7.418079 -4.591503 0
M  V30 2 O 8.175461 -0.409771 -15.660688 0
M  V30 3 C 7.423201 2.448333 -15.668340 0 CFG=1
M  V30 4 C 12.102556 6.631983 -2.431361 0
M  V30 5 C 8.801081 6.156111 -11.400238 0
M  V30 6 C 13.165147 8.693798 -10.746223 0
M  V30 7 C 11.844401 7.493466 -9.220815 0 CFG=1
M  V30 8 C 6.451530 4.675275 -12.924179 0
M  V30 9 C 7.328585 3.398335 -18.049608 0
M  V30 10 C 8.419069 6.391190 -12.874825 0
M  V30 11 C 10.074574 6.932685 -10.990973 0
M  V30 12 C 6.978846 2.222863 -17.129319 0
M  V30 13 C 12.162366 7.613260 -7.718654 0
M  V30 14 O 8.735288 8.390223 -6.491584 0
M  V30 15 F 5.799830 0.790221 -15.024031 0
M  V30 16 C 11.099439 8.410513 -6.949177 0 CFG=1
M  V30 17 C 10.456528 6.882398 -9.487131 0 CFG=2
M  V30 18 O 6.975401 3.674310 -15.104649 0
M  V30 19 C 7.964285 0.268710 -14.440320 0
M  V30 20 C 6.667732 2.172595 -13.388832 0
M  V30 21 C 6.948475 6.097425 -13.228087 0
M  V30 22 C 12.684782 9.635981 -5.368562 0
M  V30 23 C 9.766366 7.666690 -7.114169 0 CFG=2
M  V30 24 O 12.144347 7.727234 -3.327420 0
M  V30 25 C 11.469566 8.693743 -5.465827 0 CFG=2
M  V30 26 C 9.385230 7.502787 -8.589147 0
M  V30 27 C 7.185715 3.572905 -13.701536 0 CFG=2
M  V30 28 O 12.046425 8.743585 -9.865586 0
M  V30 29 C 6.944414 1.378742 -14.661990 0 CFG=1
M  V30 30 H 10.588295 6.985166 -4.455266 0
M  V30 31 H 12.175408 6.638405 -5.060827 0
M  V30 32 H 8.458329 0.206271 -16.317077 0
M  V30 33 H 8.514330 2.496339 -15.653752 0
M  V30 34 H 12.643959 6.899673 -1.527780 0
M  V30 35 H 11.075555 6.384606 -2.158752 0
M  V30 36 H 12.575384 5.742431 -2.845116 0
M  V30 37 H 7.958088 6.457289 -10.785025 0
M  V30 38 H 8.936854 5.089836 -11.214830 0
M  V30 39 H 13.375413 9.653626 -11.196478 0
M  V30 40 H 14.070669 8.390236 -10.218366 0
M  V30 41 H 12.975470 7.990227 -11.559801 0
M  V30 42 H 12.548109 6.790261 -9.649339 0
M  V30 43 H 5.386190 4.624705 -13.155280 0
M  V30 44 H 6.532562 4.484269 -11.853213 0
M  V30 45 H 7.038308 3.185249 -19.078387 0
M  V30 46 H 6.815387 4.308615 -17.740196 0
M  V30 47 H 8.400756 3.598620 -18.041025 0
M  V30 48 H 9.090590 5.830904 -13.525781 0
M  V30 49 H 8.575418 7.442762 -13.113316 0
M  V30 50 H 10.907130 6.560646 -11.587640 0
M  V30 51 H 9.950407 7.978562 -11.277288 0
M  V30 52 H 7.474015 1.334487 -17.518983 0
M  V30 53 H 5.915466 1.990226 -17.188850 0
M  V30 54 H 13.152751 8.047660 -7.600688 0
M  V30 55 H 12.178819 6.615511 -7.282825 0
M  V30 56 H 7.906176 7.988889 -6.740265 0
M  V30 57 H 11.004274 9.376256 -7.440736 0
M  V30 58 H 10.519775 5.836564 -9.185108 0
M  V30 59 H 7.574514 -0.409776 -13.688609 0
M  V30 60 H 8.904587 0.667172 -14.056714 0
M  V30 61 H 5.594717 2.200117 -13.195795 0
M  V30 62 H 7.142972 1.749012 -12.504197 0
M  V30 63 H 6.795467 6.305952 -14.287644 0
M  V30 64 H 6.313792 6.806273 -12.694579 0
M  V30 65 H 13.615912 9.190248 -5.705426 0
M  V30 66 H 12.522496 10.523814 -5.981102 0
M  V30 67 H 12.840579 9.974588 -4.344636 0
M  V30 68 H 9.820046 6.679237 -6.652590 0
M  V30 69 H 10.651365 9.275343 -5.040337 0
M  V30 70 H 9.045277 8.453329 -9.004561 0
M  V30 71 H 8.575333 6.790244 -8.609087 0
M  V30 72 H 8.257582 3.612595 -13.496414 0
M  V30 END ATOM
M  V30 BEGIN BOND
M  V30 1 1 10 5
M  V30 2 1 11 5
M  V30 3 1 12 3
M  V30 4 1 12 9
M  V30 5 1 13 7
M  V30 6 1 16 13
M  V30 7 1 17 7
M  V30 8 1 17 11
M  V30 9 1 18 3
M  V30 10 1 19 2
M  V30 11 1 21 8
M  V30 12 1 21 10
M  V30 13 1 23 14
M  V30 14 1 23 16
M  V30 15 1 24 1
M  V30 16 1 24 4
M  V30 17 1 25 1
M  V30 18 1 25 16
M  V30 19 1 25 22
M  V30 20 1 26 17
M  V30 21 1 26 23
M  V30 22 1 27 8
M  V30 23 1 27 18
M  V30 24 1 27 20
M  V30 25 1 28 6
M  V30 26 1 28 7
M  V30 27 1 29 3
M  V30 28 1 29 15 CFG=3
M  V30 29 1 29 19
M  V30 30 1 29 20
M  V30 31 1 30 1
M  V30 32 1 31 1
M  V30 33 1 32 2
M  V30 34 1 3 33 CFG=3
M  V30 35 1 34 4
M  V30 36 1 35 4
M  V30 37 1 36 4
M  V30 38 1 37 5
M  V30 39 1 38 5
M  V30 40 1 39 6
M  V30 41 1 40 6
M  V30 42 1 41 6
M  V30 43 1 7 42 CFG=3
M  V30 44 1 43 8
M  V30 45 1 44 8
M  V30 46 1 45 9
M  V30 47 1 46 9
M  V30 48 1 47 9
M  V30 49 1 48 10
M  V30 50 1 49 10
M  V30 51 1 50 11
M  V30 52 1 51 11
M  V30 53 1 52 12
M  V30 54 1 53 12
M  V30 55 1 54 13
M  V30 56 1 55 13
M  V30 57 1 56 14
M  V30 58 1 16 57 CFG=3
M  V30 59 1 17 58 CFG=1
M  V30 60 1 59 19
M  V30 61 1 60 19
M  V30 62 1 61 20
M  V30 63 1 62 20
M  V30 64 1 63 21
M  V30 65 1 64 21
M  V30 66 1 65 22
M  V30 67 1 66 22
M  V30 68 1 67 22
M  V30 69 1 23 68 CFG=1
M  V30 70 1 25 69 CFG=1
M  V30 71 1 70 26
M  V30 72 1 71 26
M  V30 73 1 27 72 CFG=3
M  V30 END BOND
M  V30 END CTAB
M  END
>  <i_epik_Tot_Q>  (1) 
0

>  <i_epik_Tot_abs_Q>  (1) 
0

>  <i_i_glide_confnum>  (1) 
1020

>  <i_i_glide_lignum>  (1) 
9

>  <i_i_glide_posenum>  (1) 
381

>  <i_i_glide_rotatable_bonds>  (1) 
14

>  <i_lp_mmshare_version>  (1) 
72125

>  <i_m_source_file_index>  (1) 
7

>  <i_f3d_flags>  (1) 
0

>  <num_sample>  (1) 
100

>  <b_lp_Chiralities_Consistent>  (1) 
1

>  <r_epik_Charging_Adjusted_Penalty>  (1) 
0

>  <r_epik_Ionization_Penalty>  (1) 
7.0602717257541721e-07

>  <r_epik_Ionization_Penalty_Charging>  (1) 
0

>  <r_epik_Ionization_Penalty_Neutral>  (1) 
7.0602717257541721e-07

>  <r_epik_State_Penalty>  (1) 
-0

>  <r_glide_ring_energy>  (1) 
0

>  <r_i_docking_score>  (1) 
-4.5156217113734165

>  <r_i_glide_ecoul>  (1) 
-1.3122946203331565

>  <r_i_glide_eff_state_penalty>  (1) 
-0

>  <r_i_glide_einternal>  (1) 
3.6195271528855812

>  <r_i_glide_emodel>  (1) 
-29.126105270794419

>  <r_i_glide_emodel_strain>  (1) 
1.4651443749767239

>  <r_i_glide_energy>  (1) 
-27.877932769732489

>  <r_i_glide_erotb>  (1) 
1.0157505286842679

>  <r_i_glide_esite>  (1) 
0

>  <r_i_glide_evdw>  (1) 
-26.565638149399334

>  <r_i_glide_gscore>  (1) 
-4.5156217113734165

>  <r_i_glide_gscore_strain>  (1) 
0

>  <r_i_glide_hbond>  (1) 
-0.16

>  <r_i_glide_ligand_efficiency>  (1) 
-0.15571109349563506

>  <r_i_glide_ligand_efficiency_ln>  (1) 
-1.0339628656177846

>  <r_i_glide_ligand_efficiency_sa>  (1) 
-0.47839381249258173

>  <r_i_glide_lipo>  (1) 
-2.5308164726017712

>  <r_i_glide_metal>  (1) 
-0

>  <r_i_glide_rewards>  (1) 
-1.3154296669359726

>  <r_lp_Energy>  (1) 
8.972643999999999

>  <r_lp_tautomer_probability>  (1) 
1

>  <s_epik_cmdline>  (1) 
J2VwaWtfcHl0aG9uJywgJy1waHQnLCAnMS4wJywgJy1waCcsICc3LjQnLCAnLXRuJywgJzgnLCAnLW1hJywgJzUwMCcsICctaW1hZScsICc8aW5maWxlLm1hZT4nLCAnLW9tYWUnLCAnPG91dGZpbGUubWFlPic=

>  <s_epik_input>  (1) 
W0NIM11PW0NIMl1bQ0BASF0oW0NIM10pW0NAQEhdKFtDSDJdW0NAQEhdMU9bQ0gzXSlbQ0BASF0oW09IXSlbQ0gyXVtDQEhdMVtDSDJdW0NIMl1bQ0gyXVtDSDJdW0NIMl1bQ0BASF0oW0NIMl0yKU9bQ0BIXShbQ0gyXVtDSDNdKVtDQEBdMihGKVtDSDJdW09IXQ==

>  <s_glide_docking_method>  (1) 
confgen

>  <s_i_glide_gridfile>  (1) 
gpcr_drd2_6luq_protein_autoprepared_prepared

>  <s_lp_Force_Field>  (1) 
S-OPLS

>  <s_lp_Variant>  (1) 
DiffSBDD_6-1

>  <s_m_source_file>  (1) 
generated_generic_title2_ligand_DiffSBDD_2026-06-23_prepared.sdf

>  <GenAI_Model>  (1) 
DiffSBDD

>  <Protein>  (1) 
generic_title2

$$$$
DiffSBDD_34
     RDKit          3D

  0  0  0  0  0  0  0  0  0  0999 V3000
M  V30 BEGIN CTAB
M  V30 COUNTS 48 50 0 0 1
M  V30 BEGIN ATOM
M  V30 1 O 10.664021 7.778418 -7.200950 0
M  V30 2 C 7.757883 4.130116 -15.634533 0
M  V30 3 C 8.241709 3.305877 -18.321875 0
M  V30 4 C 9.899130 7.808096 -8.409390 0 CFG=2
M  V30 5 C 9.925423 5.586818 -7.638826 0
M  V30 6 C 7.743312 6.398269 -12.717591 0
M  V30 7 C 9.005236 6.574409 -8.272642 0
M  V30 8 C 10.708083 6.455928 -6.661260 0
M  V30 9 C 7.076798 5.706764 -11.719184 0
M  V30 10 N 7.943392 5.901322 -13.967691 0
M  V30 11 C 7.672600 1.626336 -14.942383 0
M  V30 12 C 8.056527 2.341148 -17.324501 0
M  V30 13 C 6.795746 3.884893 -13.251304 0
M  V30 14 C 7.491698 4.635574 -14.231182 0
M  V30 15 C 11.881904 8.940727 -9.580811 0
M  V30 16 O 10.978182 7.190224 -11.937689 0
M  V30 17 C 6.596807 4.444405 -11.987105 0
M  V30 18 C 8.284675 7.780866 -12.432602 0
M  V30 19 C 7.819957 2.724143 -15.985617 0
M  V30 20 C 10.277452 7.587568 -11.008208 0
M  V30 21 C 10.890527 7.761656 -9.603200 0 CFG=2
M  V30 22 C 8.198165 4.664991 -17.999127 0
M  V30 23 C 7.961522 5.074773 -16.674837 0
M  V30 24 N 8.975406 7.889146 -11.156579 0
M  V30 25 Cl 5.775406 3.590230 -10.785025 0
M  V30 26 H 8.424189 2.999752 -19.341735 0
M  V30 27 H 9.306233 8.723997 -8.445224 0
M  V30 28 H 10.575421 5.136211 -8.385218 0
M  V30 29 H 9.354317 4.790230 -7.185036 0
M  V30 30 H 8.190163 6.771234 -7.579580 0
M  V30 31 H 8.575425 6.196711 -9.196283 0
M  V30 32 H 11.733697 6.107034 -6.537929 0
M  V30 33 H 10.231073 6.461217 -5.680706 0
M  V30 34 H 6.932617 6.148035 -10.752656 0
M  V30 35 H 8.184906 1.848462 -14.006741 0
M  V30 36 H 6.627005 1.362131 -14.782606 0
M  V30 37 H 8.148453 0.717282 -15.312189 0
M  V30 38 H 8.103135 1.292258 -17.582212 0
M  V30 39 H 6.404993 2.915224 -13.462409 0
M  V30 40 H 12.566474 8.917705 -10.429268 0
M  V30 41 H 11.373991 9.903983 -9.584988 0
M  V30 42 H 12.499062 8.905316 -8.682474 0
M  V30 43 H 8.975411 8.077186 -13.185024 0
M  V30 44 H 7.457720 8.488276 -12.433600 0
M  V30 45 H 11.508239 6.874967 -9.475044 0
M  V30 46 H 8.343902 5.404805 -18.772228 0
M  V30 47 H 7.919828 6.124410 -16.451564 0
M  V30 48 H 8.428796 8.178646 -10.346145 0
M  V30 END ATOM
M  V30 BEGIN BOND
M  V30 1 1 4 1
M  V30 2 1 7 4
M  V30 3 1 7 5
M  V30 4 1 8 1
M  V30 5 1 8 5
M  V30 6 1 9 6
M  V30 7 2 10 6
M  V30 8 1 12 3
M  V30 9 1 14 2
M  V30 10 1 14 10
M  V30 11 2 14 13
M  V30 12 2 17 9
M  V30 13 1 17 13
M  V30 14 1 18 6
M  V30 15 1 19 2
M  V30 16 1 19 11
M  V30 17 2 19 12
M  V30 18 2 20 16
M  V30 19 1 21 4
M  V30 20 1 21 15
M  V30 21 1 21 20
M  V30 22 2 22 3
M  V30 23 2 23 2
M  V30 24 1 23 22
M  V30 25 1 24 18
M  V30 26 1 24 20
M  V30 27 1 25 17
M  V30 28 1 26 3
M  V30 29 1 4 27 CFG=3
M  V30 30 1 28 5
M  V30 31 1 29 5
M  V30 32 1 30 7
M  V30 33 1 31 7
M  V30 34 1 32 8
M  V30 35 1 33 8
M  V30 36 1 34 9
M  V30 37 1 35 11
M  V30 38 1 36 11
M  V30 39 1 37 11
M  V30 40 1 38 12
M  V30 41 1 39 13
M  V30 42 1 40 15
M  V30 43 1 41 15
M  V30 44 1 42 15
M  V30 45 1 43 18
M  V30 46 1 44 18
M  V30 47 1 21 45 CFG=1
M  V30 48 1 46 22
M  V30 49 1 47 23
M  V30 50 1 48 24
M  V30 END BOND
M  V30 END CTAB
M  END
>  <i_epik_Tot_Q>  (1) 
0

>  <i_epik_Tot_abs_Q>  (1) 
0

>  <i_i_glide_confnum>  (1) 
77

>  <i_i_glide_lignum>  (1) 
57

>  <i_i_glide_posenum>  (1) 
280

>  <i_i_glide_rotatable_bonds>  (1) 
6

>  <i_lp_mmshare_version>  (1) 
72125

>  <i_m_source_file_index>  (1) 
35

>  <i_f3d_flags>  (1) 
0

>  <num_sample>  (1) 
100

>  <b_lp_Chiralities_Consistent>  (1) 
1

>  <r_epik_Charging_Adjusted_Penalty>  (1) 
0

>  <r_epik_Ionization_Penalty>  (1) 
0.00017143064018834461

>  <r_epik_Ionization_Penalty_Charging>  (1) 
0

>  <r_epik_Ionization_Penalty_Neutral>  (1) 
0.00017143064018834461

>  <r_epik_State_Penalty>  (1) 
-0

>  <r_glide_ring_energy>  (1) 
1.2359945553335399

>  <r_i_docking_score>  (1) 
-4.5038252952768199

>  <r_i_glide_ecoul>  (1) 
-4.8819941850862465

>  <r_i_glide_eff_state_penalty>  (1) 
-0

>  <r_i_glide_einternal>  (1) 
6.2406185216083294

>  <r_i_glide_emodel>  (1) 
-32.696660618795967

>  <r_i_glide_emodel_strain>  (1) 
0.14768712766849745

>  <r_i_glide_energy>  (1) 
-27.389872408093751

>  <r_i_glide_erotb>  (1) 
0.74388536090720081

>  <r_i_glide_esite>  (1) 
-0.14122608662676603

>  <r_i_glide_evdw>  (1) 
-22.507878223007506

>  <r_i_glide_gscore>  (1) 
-4.5038252952768199

>  <r_i_glide_gscore_strain>  (1) 
0

>  <r_i_glide_hbond>  (1) 
-0.14411955044052038

>  <r_i_glide_ligand_efficiency>  (1) 
-0.18015301181107279

>  <r_i_glide_ligand_efficiency_ln>  (1) 
-1.0675415637333958

>  <r_i_glide_ligand_efficiency_sa>  (1) 
-0.52677060212804883

>  <r_i_glide_lipo>  (1) 
-1.4103388809289312

>  <r_i_glide_metal>  (1) 
-0

>  <r_i_glide_rewards>  (1) 
-1.6943330992744896

>  <r_lp_Energy>  (1) 
21.087142

>  <r_lp_tautomer_probability>  (1) 
1

>  <s_epik_cmdline>  (1) 
J2VwaWtfcHl0aG9uJywgJy1waHQnLCAnMS4wJywgJy1waCcsICc3LjQnLCAnLXRuJywgJzgnLCAnLW1hJywgJzUwMCcsICctaW1hZScsICc8aW5maWxlLm1hZT4nLCAnLW9tYWUnLCAnPG91dGZpbGUubWFlPic=

>  <s_epik_input>  (1) 
W0NIMl0xW0NIMl1bQ0gyXU9bQ0BIXTFbQ0BIXShbQ0gzXSlDKD1PKVtOSF1bQ0gyXWMyW2NIXWMoQ2wpW2NIXWMobjIpLWMzYyhbQ0gzXSlbY0hdW2NIXVtjSF1bY0hdMw==

>  <s_glide_docking_method>  (1) 
confgen

>  <s_i_glide_gridfile>  (1) 
gpcr_drd2_6luq_protein_autoprepared_prepared

>  <s_lp_Force_Field>  (1) 
S-OPLS

>  <s_lp_Variant>  (1) 
DiffSBDD_34-1

>  <s_m_source_file>  (1) 
generated_generic_title2_ligand_DiffSBDD_2026-06-23_prepared.sdf

>  <GenAI_Model>  (1) 
DiffSBDD

>  <Protein>  (1) 
generic_title2

$$$$
DiffSBDD_89
     RDKit          3D

  0  0  0  0  0  0  0  0  0  0999 V3000
M  V30 BEGIN CTAB
M  V30 COUNTS 79 82 0 0 1
M  V30 BEGIN ATOM
M  V30 1 C 10.294434 7.253356 -7.500640 0
M  V30 2 O 5.134770 1.082996 -19.689398 0
M  V30 3 C 9.150092 0.277012 -18.919249 0
M  V30 4 C 6.786897 2.806257 -19.708651 0
M  V30 5 C 6.141286 1.562296 -19.170330 0
M  V30 6 C 6.793544 0.926450 -17.946404 0 CFG=1
M  V30 7 F 13.318994 8.265997 -8.835136 0
M  V30 8 C 7.915149 5.018056 -9.288936 0
M  V30 9 C 8.536333 3.067612 -13.004537 0
M  V30 10 C 10.279107 6.285650 -12.595528 0
M  V30 11 F 11.775514 9.757950 -9.179822 0
M  V30 12 F 12.328399 9.189748 -7.145363 0
M  V30 13 C 7.203683 -1.285362 -19.273762 0
M  V30 14 C 8.026367 4.339525 -16.391255 0 CFG=2
M  V30 15 C 9.749680 6.382610 -10.125287 0
M  V30 16 N 7.375505 3.308707 -17.276923 0
M  V30 17 C 6.087286 8.395081 -15.839758 0
M  V30 18 C 7.810752 -0.220327 -18.334033 0
M  V30 19 O 10.549889 7.670182 -6.222576 0
M  V30 20 C 8.438048 5.063386 -11.663482 0
M  V30 21 C 9.469189 5.918909 -11.425139 0
M  V30 22 C 8.285521 4.590820 -13.088980 0 CFG=1
M  V30 23 C 10.789348 7.293111 -9.896574 0
M  V30 24 C 11.061561 7.740511 -8.594482 0
M  V30 25 C 7.628083 4.605489 -10.608839 0
M  V30 26 C 7.382346 1.973950 -16.934441 0
M  V30 27 O 7.848744 1.575605 -15.873872 0
M  V30 28 C 7.152786 5.322952 -15.482095 0 CFG=1
M  V30 29 C 9.120776 5.091017 -17.191501 0
M  V30 30 C 9.255724 6.338120 -7.734162 0
M  V30 31 C 12.160574 8.752616 -8.392232 0
M  V30 32 C 5.878735 5.901102 -16.144955 0 CFG=2
M  V30 33 F 6.066515 6.176916 -17.432949 0
M  V30 34 O 8.134346 -0.957652 -17.173795 0
M  V30 35 C 6.787280 3.793882 -18.555263 0
M  V30 36 C 9.555990 5.359580 -13.648572 0
M  V30 37 C 6.997162 5.001548 -13.913393 0 CFG=1
M  V30 38 C 5.808836 4.066941 -13.610995 0
M  V30 39 C 5.273768 7.161126 -15.533230 0
M  V30 40 C 8.975016 5.911809 -9.045658 0
M  V30 41 H 9.011754 0.767398 -19.882207 0
M  V30 42 H 9.652925 0.980919 -18.255849 0
M  V30 43 H 9.840588 -0.550837 -19.085276 0
M  V30 44 H 7.799458 2.594676 -20.045860 0
M  V30 45 H 6.224038 3.191844 -20.558954 0
M  V30 46 H 5.972353 0.453134 -17.406587 0
M  V30 47 H 7.329947 4.652213 -8.469647 0
M  V30 48 H 8.575192 2.597693 -13.966549 0
M  V30 49 H 9.481402 2.849483 -12.503358 0
M  V30 50 H 7.761679 2.547746 -12.445808 0
M  V30 51 H 10.169554 7.352913 -12.784972 0
M  V30 52 H 11.328688 6.025765 -12.460323 0
M  V30 53 H 6.991796 -0.881116 -20.263441 0
M  V30 54 H 7.883489 -2.127194 -19.419421 0
M  V30 55 H 6.273013 -1.687725 -18.871418 0
M  V30 56 H 8.653977 3.797814 -15.696868 0
M  V30 57 H 5.429843 9.247099 -15.985031 0
M  V30 58 H 6.861542 8.597886 -15.102948 0
M  V30 59 H 6.576796 8.295586 -16.784788 0
M  V30 60 H 11.237371 8.320866 -6.185038 0
M  V30 61 H 11.378867 7.663775 -10.721320 0
M  V30 62 H 6.820868 3.919048 -10.794801 0
M  V30 63 H 7.720091 6.246623 -15.502565 0
M  V30 64 H 9.867236 5.545306 -16.542240 0
M  V30 65 H 9.667423 4.410931 -17.846232 0
M  V30 66 H 8.713105 5.897527 -17.802156 0
M  V30 67 H 8.661764 5.973918 -6.908259 0
M  V30 68 H 5.093452 5.190251 -16.109894 0
M  V30 69 H 8.605548 -1.742011 -17.408575 0
M  V30 70 H 5.747915 4.071850 -18.385983 0
M  V30 71 H 7.279537 4.691117 -18.921179 0
M  V30 72 H 10.175795 4.591990 -14.073043 0
M  V30 73 H 9.365995 5.990084 -14.487599 0
M  V30 74 H 6.727555 5.959626 -13.470736 0
M  V30 75 H 5.960021 3.075217 -14.036708 0
M  V30 76 H 5.652627 3.941207 -12.543855 0
M  V30 77 H 4.874820 4.477178 -13.985006 0
M  V30 78 H 4.294707 7.309895 -15.988293 0
M  V30 79 H 5.103968 7.069074 -14.462418 0
M  V30 END ATOM
M  V30 BEGIN BOND
M  V30 1 2 5 2
M  V30 2 1 5 4
M  V30 3 1 6 5
M  V30 4 1 16 14
M  V30 5 1 18 3
M  V30 6 1 18 6
M  V30 7 1 18 13
M  V30 8 1 19 1
M  V30 9 1 21 10
M  V30 10 1 21 15
M  V30 11 2 21 20
M  V30 12 1 22 9 CFG=1
M  V30 13 1 22 20
M  V30 14 2 23 15
M  V30 15 2 24 1
M  V30 16 1 24 23
M  V30 17 2 25 8
M  V30 18 1 25 20
M  V30 19 1 26 6
M  V30 20 1 26 16
M  V30 21 2 27 26
M  V30 22 1 28 14
M  V30 23 1 29 14
M  V30 24 1 30 1
M  V30 25 1 31 7
M  V30 26 1 31 11
M  V30 27 1 31 12
M  V30 28 1 31 24
M  V30 29 1 32 28
M  V30 30 1 33 32
M  V30 31 1 34 18
M  V30 32 1 35 4
M  V30 33 1 35 16
M  V30 34 1 36 10
M  V30 35 1 36 22
M  V30 36 1 37 22
M  V30 37 1 37 28
M  V30 38 1 38 37
M  V30 39 1 39 17
M  V30 40 1 39 32
M  V30 41 1 40 8
M  V30 42 1 40 15
M  V30 43 2 40 30
M  V30 44 1 41 3
M  V30 45 1 42 3
M  V30 46 1 43 3
M  V30 47 1 44 4
M  V30 48 1 45 4
M  V30 49 1 6 46 CFG=1
M  V30 50 1 47 8
M  V30 51 1 48 9
M  V30 52 1 49 9
M  V30 53 1 50 9
M  V30 54 1 51 10
M  V30 55 1 52 10
M  V30 56 1 53 13
M  V30 57 1 54 13
M  V30 58 1 55 13
M  V30 59 1 14 56 CFG=1
M  V30 60 1 57 17
M  V30 61 1 58 17
M  V30 62 1 59 17
M  V30 63 1 60 19
M  V30 64 1 61 23
M  V30 65 1 62 25
M  V30 66 1 28 63 CFG=1
M  V30 67 1 64 29
M  V30 68 1 65 29
M  V30 69 1 66 29
M  V30 70 1 67 30
M  V30 71 1 32 68 CFG=3
M  V30 72 1 69 34
M  V30 73 1 70 35
M  V30 74 1 71 35
M  V30 75 1 72 36
M  V30 76 1 73 36
M  V30 77 1 37 74 CFG=1
M  V30 78 1 75 38
M  V30 79 1 76 38
M  V30 80 1 77 38
M  V30 81 1 78 39
M  V30 82 1 79 39
M  V30 END BOND
M  V30 END CTAB
M  END
>  <i_epik_Tot_Q>  (1) 
0

>  <i_epik_Tot_abs_Q>  (1) 
0

>  <i_i_glide_confnum>  (1) 
201

>  <i_i_glide_lignum>  (1) 
164

>  <i_i_glide_posenum>  (1) 
305

>  <i_i_glide_rotatable_bonds>  (1) 
10

>  <i_lp_mmshare_version>  (1) 
72125

>  <i_m_source_file_index>  (1) 
90

>  <i_f3d_flags>  (1) 
0

>  <num_sample>  (1) 
100

>  <b_lp_Chiralities_Consistent>  (1) 
1

>  <r_epik_Charging_Adjusted_Penalty>  (1) 
0

>  <r_epik_Ionization_Penalty>  (1) 
0.063976020685543381

>  <r_epik_Ionization_Penalty_Charging>  (1) 
0

>  <r_epik_Ionization_Penalty_Neutral>  (1) 
0.063976020685543381

>  <r_epik_State_Penalty>  (1) 
-0

>  <r_glide_ring_energy>  (1) 
0

>  <r_i_docking_score>  (1) 
-4.4989936559198123

>  <r_i_glide_ecoul>  (1) 
1.8607658474121389

>  <r_i_glide_eff_state_penalty>  (1) 
-0

>  <r_i_glide_einternal>  (1) 
16.265931051488998

>  <r_i_glide_emodel>  (1) 
-23.862160041319495

>  <r_i_glide_emodel_strain>  (1) 
4.4531622025907609

>  <r_i_glide_energy>  (1) 
-27.835631281470622

>  <r_i_glide_erotb>  (1) 
0.30496708774431369

>  <r_i_glide_esite>  (1) 
-0.0068825921975336759

>  <r_i_glide_evdw>  (1) 
-29.696397128882762

>  <r_i_glide_gscore>  (1) 
-4.4989936559198123

>  <r_i_glide_gscore_strain>  (1) 
0.11329055064769022

>  <r_i_glide_hbond>  (1) 
0

>  <r_i_glide_ligand_efficiency>  (1) 
-0.11247484139799531

>  <r_i_glide_ligand_efficiency_ln>  (1) 
-0.95950294733477925

>  <r_i_glide_ligand_efficiency_sa>  (1) 
-0.38465854679369682

>  <r_i_glide_lipo>  (1) 
-2.0064191030120937

>  <r_i_glide_metal>  (1) 
-0

>  <r_i_glide_rewards>  (1) 
-1.6982446197698711

>  <r_lp_Energy>  (1) 
57.567276

>  <r_lp_tautomer_probability>  (1) 
1

>  <s_epik_cmdline>  (1) 
J2VwaWtfcHl0aG9uJywgJy1waHQnLCAnMS4wJywgJy1waCcsICc3LjQnLCAnLXRuJywgJzgnLCAnLW1hJywgJzUwMCcsICctaW1hZScsICc8aW5maWxlLm1hZT4nLCAnLW9tYWUnLCAnPG91dGZpbGUubWFlPic=

>  <s_epik_input>  (1) 
RkMoRikoRiljKFtjSF0xKWMoW09IXSlbY0hdYzJbY0hdW2NIXWMoYzNjMTIpW0NAXShbQ0gzXSkoW0NIMl1bQ0gyXTMpW0NASF0oW0NIM10pW0NASF0oW0NASF0oRilbQ0gyXVtDSDNdKVtDQEhdKFtDSDNdKU4oW0NIMl1bQ0gyXUM0PU8pQyg9TylbQ0BASF00QyhbQ0gzXSkoW0NIM10pW09IXQ==

>  <s_glide_docking_method>  (1) 
confgen

>  <s_i_glide_gridfile>  (1) 
gpcr_drd2_6luq_protein_autoprepared_prepared

>  <s_lp_Force_Field>  (1) 
S-OPLS

>  <s_lp_Variant>  (1) 
DiffSBDD_89-1

>  <s_m_source_file>  (1) 
generated_generic_title2_ligand_DiffSBDD_2026-06-23_prepared.sdf

>  <GenAI_Model>  (1) 
DiffSBDD

>  <Protein>  (1) 
generic_title2

$$$$
DiffSBDD_51
     RDKit          3D

  0  0  0  0  0  0  0  0  0  0999 V3000
M  V30 BEGIN CTAB
M  V30 COUNTS 67 70 0 0 1
M  V30 BEGIN ATOM
M  V30 1 C 5.951912 3.946016 -11.810098 0
M  V30 2 C 6.671637 5.146041 -17.055819 0
M  V30 3 C 6.168218 5.192324 -13.997887 0
M  V30 4 C 6.300134 6.399427 -16.239226 0 CFG=1
M  V30 5 C 15.301302 8.205476 -18.075871 0
M  V30 6 N 17.288892 9.590212 -17.986677 0
M  V30 7 C 10.648331 5.214948 -19.214101 0
M  V30 8 N 7.999290 5.197407 -17.652788 0
M  V30 9 C 14.874796 4.425282 -18.001928 0
M  V30 10 C 6.457742 5.113511 -12.621295 0
M  V30 11 C 15.501355 5.773175 -17.988332 0
M  V30 12 C 17.504629 7.167488 -17.889943 0
M  V30 13 C 16.905803 5.894795 -17.891031 0
M  V30 14 C 9.058004 4.521893 -16.892812 0 CFG=1
M  V30 15 C 8.427578 2.255659 -17.258530 0
M  V30 16 N 12.617002 5.546265 -17.693309 0
M  V30 17 C 4.825711 6.770018 -16.427275 0
M  V30 18 C 8.184919 5.773911 -18.915991 0
M  V30 19 C 13.340447 4.337117 -18.156769 0 CFG=2
M  V30 20 C 14.697487 6.932470 -18.076290 0
M  V30 21 C 7.375409 7.305725 -14.126040 0
M  V30 22 O 15.562162 3.407192 -17.938064 0
M  V30 23 C 13.187139 6.814156 -18.189884 0
M  V30 24 C 18.613227 9.835038 -17.957732 0
M  V30 25 N 19.738287 10.102972 -17.984123 0
M  V30 26 O 9.415548 3.266470 -17.383715 0
M  V30 27 N 11.194204 5.507432 -17.884929 0
M  V30 28 C 7.208381 6.129829 -11.999964 0
M  V30 29 C 12.823517 3.060259 -17.456893 0
M  V30 30 C 6.627802 6.292830 -14.753564 0
M  V30 31 C 9.324325 5.806617 -19.638235 0
M  V30 32 C 7.666167 7.224754 -12.752007 0
M  V30 33 C 10.316472 5.394629 -16.716256 0
M  V30 34 C 16.703177 8.325004 -17.985255 0
M  V30 35 H 6.306694 3.993418 -10.780879 0
M  V30 36 H 6.263962 2.996042 -12.246584 0
M  V30 37 H 4.865876 3.990655 -11.795276 0
M  V30 38 H 5.964440 5.026471 -17.877718 0
M  V30 39 H 6.575505 4.242855 -16.457698 0
M  V30 40 H 5.588354 4.413708 -14.470513 0
M  V30 41 H 6.860616 7.231988 -16.657387 0
M  V30 42 H 14.687663 9.092106 -18.149578 0
M  V30 43 H 16.653258 10.372169 -18.036577 0
M  V30 44 H 11.370730 5.549929 -19.959160 0
M  V30 45 H 10.591628 4.134513 -19.352949 0
M  V30 46 H 18.578715 7.254784 -17.815856 0
M  V30 47 H 17.523427 5.011815 -17.820821 0
M  V30 48 H 8.662529 4.353569 -15.888674 0
M  V30 49 H 8.826926 1.318861 -17.647232 0
M  V30 50 H 7.533175 2.494045 -17.833488 0
M  V30 51 H 8.144344 2.096269 -16.217493 0
M  V30 52 H 4.590359 7.701578 -15.910627 0
M  V30 53 H 4.173910 5.991779 -16.038519 0
M  V30 54 H 4.583916 6.912917 -17.480669 0
M  V30 55 H 7.282215 6.219809 -19.307501 0
M  V30 56 H 13.147850 4.226152 -19.223678 0
M  V30 57 H 7.720252 8.152157 -14.698513 0
M  V30 58 H 12.936050 6.943016 -19.243457 0
M  V30 59 H 12.717559 7.637635 -17.648631 0
M  V30 60 H 7.427172 6.073161 -10.943387 0
M  V30 61 H 13.363220 2.167229 -17.770292 0
M  V30 62 H 11.778217 2.872457 -17.685367 0
M  V30 63 H 12.918762 3.144098 -16.376780 0
M  V30 64 H 9.312226 6.284217 -20.607054 0
M  V30 65 H 8.237365 8.007700 -12.272449 0
M  V30 66 H 10.014487 6.388993 -16.392378 0
M  V30 67 H 10.890014 4.960888 -15.895699 0
M  V30 END ATOM
M  V30 BEGIN BOND
M  V30 1 1 4 2
M  V30 2 1 8 2
M  V30 3 1 10 1
M  V30 4 2 10 3
M  V30 5 1 11 9
M  V30 6 1 13 11
M  V30 7 2 13 12
M  V30 8 1 14 8
M  V30 9 1 17 4
M  V30 10 1 18 8
M  V30 11 1 19 9
M  V30 12 1 19 16
M  V30 13 1 20 5
M  V30 14 2 20 11
M  V30 15 2 22 9
M  V30 16 1 23 16
M  V30 17 1 23 20
M  V30 18 1 24 6
M  V30 19 3 25 24
M  V30 20 1 26 14
M  V30 21 1 26 15
M  V30 22 1 27 7
M  V30 23 1 27 16
M  V30 24 1 28 10
M  V30 25 1 29 19
M  V30 26 1 30 3
M  V30 27 1 30 4
M  V30 28 2 30 21
M  V30 29 1 31 7
M  V30 30 2 31 18
M  V30 31 1 32 21
M  V30 32 2 32 28
M  V30 33 1 33 14
M  V30 34 1 33 27
M  V30 35 2 34 5
M  V30 36 1 34 6
M  V30 37 1 34 12
M  V30 38 1 35 1
M  V30 39 1 36 1
M  V30 40 1 37 1
M  V30 41 1 38 2
M  V30 42 1 39 2
M  V30 43 1 40 3
M  V30 44 1 4 41 CFG=3
M  V30 45 1 42 5
M  V30 46 1 43 6
M  V30 47 1 44 7
M  V30 48 1 45 7
M  V30 49 1 46 12
M  V30 50 1 47 13
M  V30 51 1 14 48 CFG=1
M  V30 52 1 49 15
M  V30 53 1 50 15
M  V30 54 1 51 15
M  V30 55 1 52 17
M  V30 56 1 53 17
M  V30 57 1 54 17
M  V30 58 1 55 18
M  V30 59 1 19 56 CFG=3
M  V30 60 1 57 21
M  V30 61 1 58 23
M  V30 62 1 59 23
M  V30 63 1 60 28
M  V30 64 1 61 29
M  V30 65 1 62 29
M  V30 66 1 63 29
M  V30 67 1 64 31
M  V30 68 1 65 32
M  V30 69 1 66 33
M  V30 70 1 67 33
M  V30 END BOND
M  V30 END CTAB
M  END
>  <i_epik_Tot_Q>  (1) 
0

>  <i_epik_Tot_abs_Q>  (1) 
0

>  <i_i_glide_confnum>  (1) 
25

>  <i_i_glide_lignum>  (1) 
80

>  <i_i_glide_posenum>  (1) 
357

>  <i_i_glide_rotatable_bonds>  (1) 
6

>  <i_lp_mmshare_version>  (1) 
72125

>  <i_m_source_file_index>  (1) 
52

>  <i_f3d_flags>  (1) 
0

>  <num_sample>  (1) 
100

>  <b_lp_Chiralities_Consistent>  (1) 
1

>  <r_epik_Charging_Adjusted_Penalty>  (1) 
7.4502254237452924e-08

>  <r_epik_Ionization_Penalty>  (1) 
0.00022335133816854321

>  <r_epik_Ionization_Penalty_Charging>  (1) 
7.4502254237452924e-08

>  <r_epik_Ionization_Penalty_Neutral>  (1) 
0.00022327683591430577

>  <r_epik_State_Penalty>  (1) 
-0

>  <r_glide_ring_energy>  (1) 
0

>  <r_i_docking_score>  (1) 
-4.491834755935221

>  <r_i_glide_ecoul>  (1) 
-1.7016851508586996

>  <r_i_glide_eff_state_penalty>  (1) 
-0

>  <r_i_glide_einternal>  (1) 
2.9374546708330511

>  <r_i_glide_emodel>  (1) 
-40.916792604429787

>  <r_i_glide_emodel_strain>  (1) 
0.50126227468000195

>  <r_i_glide_energy>  (1) 
-32.79521249959555

>  <r_i_glide_erotb>  (1) 
0.47630443723403276

>  <r_i_glide_esite>  (1) 
-0.0024913302832694122

>  <r_i_glide_evdw>  (1) 
-31.093527348736849

>  <r_i_glide_gscore>  (1) 
-4.491834755935221

>  <r_i_glide_gscore_strain>  (1) 
0

>  <r_i_glide_hbond>  (1) 
-0.077516307219114775

>  <r_i_glide_ligand_efficiency>  (1) 
-0.1321127869392712

>  <r_i_glide_ligand_efficiency_ln>  (1) 
-0.99237228928337118

>  <r_i_glide_ligand_efficiency_sa>  (1) 
-0.42799414366812083

>  <r_i_glide_lipo>  (1) 
-1.8524813132963975

>  <r_i_glide_metal>  (1) 
-0

>  <r_i_glide_rewards>  (1) 
-1.2257211023048249

>  <r_lp_Energy>  (1) 
38.248024999999998

>  <r_lp_tautomer_probability>  (1) 
1

>  <s_epik_Chemistry_Notes>  (1) 
This compound has an imine and may undergo hydrolysis. This compound contains an acetal/aminal-like group ( X-CH(R)-Y where X, Y are N, S, or O) that may be acid/base labile, releasing an aldehyde.

>  <s_epik_cmdline>  (1) 
J2VwaWtfcHl0aG9uJywgJy1waHQnLCAnMS4wJywgJy1waCcsICc3LjQnLCAnLXRuJywgJzgnLCAnLW1hJywgJzUwMCcsICctaW1hZScsICc8aW5maWxlLm1hZT4nLCAnLW9tYWUnLCAnPG91dGZpbGUubWFlPic=

>  <s_epik_input>  (1) 
W0NIM11jMVtjSF1jKFtjSF1bY0hdW2NIXTEpW0NASF0oW0NIM10pW0NIMl1OMltDQEBIXShPW0NIM10pW0NIMl1OKFtDSDJdW0NIXT1bQ0hdMilOKFtDQEBIXShDMz1PKVtDSDNdKVtDSDJdYyhjMzQpW2NIXWMoW05IXUMjTilbY0hdW2NIXTQ=

>  <s_glide_docking_method>  (1) 
confgen

>  <s_i_glide_gridfile>  (1) 
gpcr_drd2_6luq_protein_autoprepared_prepared

>  <s_lp_Force_Field>  (1) 
S-OPLS

>  <s_lp_Variant>  (1) 
DiffSBDD_51-1

>  <s_m_source_file>  (1) 
generated_generic_title2_ligand_DiffSBDD_2026-06-23_prepared.sdf

>  <GenAI_Model>  (1) 
DiffSBDD

>  <Protein>  (1) 
generic_title2

$$$$
DiffSBDD_94
     RDKit          3D

  0  0  0  0  0  0  0  0  0  0999 V3000
M  V30 BEGIN CTAB
M  V30 COUNTS 65 69 0 0 1
M  V30 BEGIN ATOM
M  V30 1 C 9.268674 4.628995 -11.979423 0
M  V30 2 C 8.724160 5.422360 -16.268161 0
M  V30 3 O 8.482072 -2.281854 -17.584987 0
M  V30 4 C 9.169686 5.177554 -13.408671 0
M  V30 5 C 7.826648 -1.031551 -17.539082 0 CFG=1
M  V30 6 N 11.568558 9.267753 -6.191182 0
M  V30 7 C 11.374808 8.433494 -5.138825 0
M  V30 8 C 8.543059 5.530122 -10.987866 0 CFG=2
M  V30 9 C 11.025968 7.512355 -7.643935 0
M  V30 10 C 7.838085 -0.259657 -18.840358 0 CFG=1
M  V30 11 Cl 6.175552 4.144074 -11.180195 0
M  V30 12 C 6.591730 -1.009655 -18.399945 0
M  V30 13 C 10.854774 7.066428 -9.089926 0 CFG=2
M  V30 14 C 6.756207 4.959154 -15.872668 0
M  V30 15 C 7.703376 5.984371 -15.252859 0 CFG=1
M  V30 16 C 7.072270 5.662297 -11.445381 0 CFG=2
M  V30 17 C 8.182443 1.947375 -17.508114 0 CFG=1
M  V30 18 C 11.946996 7.658133 -10.007247 0
M  V30 19 C 10.988256 7.091916 -5.290888 0
M  V30 20 O 5.799462 6.546117 -13.278087 0
M  V30 21 N 11.381054 8.808203 -7.445180 0
M  V30 22 N 7.928681 4.192621 -16.294073 0 CFG=1 CHG=1
M  V30 23 C 7.847851 1.260972 -18.861565 0
M  V30 24 N 7.854002 5.732999 -13.800105 0
M  V30 25 F 8.518454 -0.817310 -19.909508 0
M  V30 26 C 7.786994 3.451836 -17.577054 0
M  V30 27 C 10.811584 6.614257 -6.589185 0
M  V30 28 C 7.953487 -0.325354 -16.208060 0
M  V30 29 O 6.975425 1.725611 -15.412648 0
M  V30 30 C 6.858475 6.028352 -12.922879 0
M  V30 31 C 9.430984 7.322149 -9.595693 0
M  V30 32 C 7.630322 1.168041 -16.289962 0
M  V30 33 N 9.237008 6.822205 -10.955654 0
M  V30 34 H 10.311735 4.502537 -11.699695 0
M  V30 35 H 8.833961 3.629452 -11.946096 0
M  V30 36 H 9.761492 5.315270 -15.953536 0
M  V30 37 H 8.679381 5.958443 -17.218990 0
M  V30 38 H 8.176225 -2.806497 -16.853523 0
M  V30 39 H 9.483067 4.369197 -14.059160 0
M  V30 40 H 9.905241 5.975755 -13.524827 0
M  V30 41 H 11.526320 8.853320 -4.155095 0
M  V30 42 H 8.584131 5.054330 -10.006457 0
M  V30 43 H 6.330621 -1.909998 -18.952241 0
M  V30 44 H 5.743153 -0.428193 -18.045304 0
M  V30 45 H 10.975290 5.990156 -9.071954 0
M  V30 46 H 6.179129 5.376169 -16.700368 0
M  V30 47 H 6.128062 4.408772 -15.173451 0
M  V30 48 H 7.375232 7.001516 -15.472187 0
M  V30 49 H 6.553221 6.390153 -10.828881 0
M  V30 50 H 9.264777 1.899776 -17.384587 0
M  V30 51 H 12.942455 7.490203 -9.596327 0
M  V30 52 H 11.915589 7.224015 -11.006352 0
M  V30 53 H 11.820466 8.735187 -10.121657 0
M  V30 54 H 10.836750 6.452088 -4.433830 0
M  V30 55 H 6.877231 1.590156 -19.233689 0
M  V30 56 H 8.571913 1.587017 -19.608810 0
M  V30 57 H 8.384651 3.939861 -18.347208 0
M  V30 58 H 6.754910 3.523822 -17.922814 0
M  V30 59 H 10.519362 5.591345 -6.774886 0
M  V30 60 H 7.299244 -0.808928 -15.481826 0
M  V30 61 H 8.975404 -0.441264 -15.852468 0
M  V30 62 H 9.235480 8.394963 -9.586784 0
M  V30 63 H 8.721653 6.859399 -8.905343 0
M  V30 64 H 8.628874 7.494173 -11.404181 0
M  V30 65 H 8.188532 3.575099 -15.536610 0
M  V30 END ATOM
M  V30 BEGIN BOND
M  V30 1 1 4 1
M  V30 2 1 5 3 CFG=3
M  V30 3 1 7 6
M  V30 4 1 8 1
M  V30 5 1 10 5
M  V30 6 1 12 5
M  V30 7 1 12 10
M  V30 8 1 13 9
M  V30 9 1 15 2
M  V30 10 1 15 14
M  V30 11 1 16 8
M  V30 12 1 16 11
M  V30 13 1 18 13
M  V30 14 2 19 7
M  V30 15 2 21 6
M  V30 16 1 21 9
M  V30 17 1 22 2
M  V30 18 1 22 14
M  V30 19 1 23 10
M  V30 20 1 23 17
M  V30 21 1 24 4
M  V30 22 1 24 15
M  V30 23 1 10 25 CFG=3
M  V30 24 1 26 17
M  V30 25 1 26 22
M  V30 26 2 27 9
M  V30 27 1 27 19
M  V30 28 1 28 5
M  V30 29 1 30 16
M  V30 30 2 30 20
M  V30 31 1 30 24
M  V30 32 1 31 13
M  V30 33 1 32 17
M  V30 34 1 32 28
M  V30 35 2 32 29
M  V30 36 1 33 8
M  V30 37 1 33 31
M  V30 38 1 34 1
M  V30 39 1 35 1
M  V30 40 1 36 2
M  V30 41 1 37 2
M  V30 42 1 38 3
M  V30 43 1 39 4
M  V30 44 1 40 4
M  V30 45 1 41 7
M  V30 46 1 8 42 CFG=1
M  V30 47 1 43 12
M  V30 48 1 44 12
M  V30 49 1 13 45 CFG=1
M  V30 50 1 46 14
M  V30 51 1 47 14
M  V30 52 1 15 48 CFG=1
M  V30 53 1 16 49 CFG=1
M  V30 54 1 17 50 CFG=1
M  V30 55 1 51 18
M  V30 56 1 52 18
M  V30 57 1 53 18
M  V30 58 1 54 19
M  V30 59 1 55 23
M  V30 60 1 56 23
M  V30 61 1 57 26
M  V30 62 1 58 26
M  V30 63 1 59 27
M  V30 64 1 60 28
M  V30 65 1 61 28
M  V30 66 1 62 31
M  V30 67 1 63 31
M  V30 68 1 64 33
M  V30 69 1 22 65 CFG=1
M  V30 END BOND
M  V30 END CTAB
M  END
>  <i_epik_Tot_Q>  (1) 
1

>  <i_epik_Tot_abs_Q>  (1) 
1

>  <i_i_glide_confnum>  (1) 
520

>  <i_i_glide_lignum>  (1) 
181

>  <i_i_glide_posenum>  (1) 
249

>  <i_i_glide_rotatable_bonds>  (1) 
8

>  <i_lp_mmshare_version>  (1) 
72125

>  <i_m_source_file_index>  (1) 
95

>  <i_f3d_flags>  (1) 
0

>  <num_sample>  (1) 
100

>  <b_lp_Chiralities_Consistent>  (1) 
1

>  <r_epik_Charging_Adjusted_Penalty>  (1) 
1.4532026091556733

>  <r_epik_Ionization_Penalty>  (1) 
1.1658176113502041

>  <r_epik_Ionization_Penalty_Charging>  (1) 
0.22723193656236854

>  <r_epik_Ionization_Penalty_Neutral>  (1) 
0.93858567478783561

>  <r_epik_State_Penalty>  (1) 
1.2259706725933048

>  <r_glide_ring_energy>  (1) 
1.3165782718524921

>  <r_i_docking_score>  (1) 
-4.485287829952

>  <r_i_glide_ecoul>  (1) 
-8.2765134307184898

>  <r_i_glide_eff_state_penalty>  (1) 
1.2259706725933048

>  <r_i_glide_einternal>  (1) 
9.4727702712914947

>  <r_i_glide_emodel>  (1) 
-53.760116592983039

>  <r_i_glide_emodel_strain>  (1) 
1.6273005761593566

>  <r_i_glide_energy>  (1) 
-44.913127447644264

>  <r_i_glide_erotb>  (1) 
0.52602338862990483

>  <r_i_glide_esite>  (1) 
-0.0044896800714094047

>  <r_i_glide_evdw>  (1) 
-36.636614016925776

>  <r_i_glide_gscore>  (1) 
-5.7112585025453049

>  <r_i_glide_gscore_strain>  (1) 
0

>  <r_i_glide_hbond>  (1) 
-0.31182656808686254

>  <r_i_glide_ligand_efficiency>  (1) 
-0.13591781302884848

>  <r_i_glide_ligand_efficiency_ln>  (1) 
-0.99750478980384039

>  <r_i_glide_ligand_efficiency_sa>  (1) 
-0.43596105134798557

>  <r_i_glide_lipo>  (1) 
-1.9218167319023243

>  <r_i_glide_metal>  (1) 
-0

>  <r_i_glide_rewards>  (1) 
-0.92584119566055145

>  <r_lp_Energy>  (1) 
64.001239999999996

>  <s_epik_cmdline>  (1) 
J2VwaWtfcHl0aG9uJywgJy1waHQnLCAnMS4wJywgJy1waCcsICc3LjQnLCAnLXRuJywgJzgnLCAnLW1hJywgJzUwMCcsICctaW1hZScsICc8aW5maWxlLm1hZT4nLCAnLW9tYWUnLCAnPG91dGZpbGUubWFlPic=

>  <s_epik_input>  (1) 
W2NIXTFbY0hdW2NIXW5uYzFbQ0BIXShbQ0gzXSlbQ0gyXVtOSF1bQ0BASF0yW0NIMl1bQ0gyXU4oQyg9TylbQ0BIXTJDbClbQ0hdM1tDSDJdTihbQ0gyXTMpW0NIMl1bQ0BASF0oQyg9TylbQ0gyXTQpW0NIMl1bQ0BdKEYpKFtDSDJdNSlbQ0BAXTQ1W09IXQ==

>  <s_glide_docking_method>  (1) 
confgen

>  <s_i_glide_gridfile>  (1) 
gpcr_drd2_6luq_protein_autoprepared_prepared

>  <s_lp_Force_Field>  (1) 
S-OPLS

>  <s_lp_Variant>  (1) 
DiffSBDD_94-4

>  <s_m_source_file>  (1) 
generated_generic_title2_ligand_DiffSBDD_2026-06-23_prepared.sdf

>  <GenAI_Model>  (1) 
DiffSBDD

>  <Protein>  (1) 
generic_title2

$$$$
DiffSBDD_75
     RDKit          3D

  0  0  0  0  0  0  0  0  0  0999 V3000
M  V30 BEGIN CTAB
M  V30 COUNTS 71 75 0 0 1
M  V30 BEGIN ATOM
M  V30 1 C 5.973385 6.552696 -14.693745 0
M  V30 2 C 8.535925 7.291186 -11.890806 0
M  V30 3 C 9.488552 5.861209 -10.076004 0 CFG=1
M  V30 4 C 8.754204 6.377240 -6.385026 0
M  V30 5 C 8.769933 5.537342 -8.771785 0
M  V30 6 C 3.458477 7.391713 -18.302654 0
M  V30 7 F 4.783941 6.891924 -22.298726 0
M  V30 8 C 10.648114 7.103888 -8.000107 0 CFG=1
M  V30 9 C 6.902513 7.500656 -21.479075 0
M  V30 10 F 5.394651 8.946504 -22.485392 0
M  V30 11 C 7.294261 7.467979 -12.752960 0
M  V30 12 C 7.008611 5.017189 -12.924170 0
M  V30 13 F 8.381685 5.826537 -20.813286 0
M  V30 14 C 4.653238 8.265944 -20.402607 0
M  V30 15 N 8.528438 6.003432 -11.185004 0
M  V30 16 C 7.136872 6.253897 -20.604636 0 CFG=1
M  V30 17 C 5.775396 6.921348 -18.579011 0
M  V30 18 C 6.333988 6.247839 -16.156322 0
M  V30 19 C 4.087386 7.195742 -16.922855 0
M  V30 20 N 9.383698 4.405264 -12.787722 0 CHG=1
M  V30 21 C 7.137389 6.311438 -13.728888 0 CFG=1
M  V30 22 S 10.526399 7.335983 -9.784546 0
M  V30 23 C 11.775975 9.342742 -7.519533 0
M  V30 24 C 10.575943 8.441325 -7.236090 0
M  V30 25 C 4.527776 7.120674 -19.381027 0 CFG=1
M  V30 26 C 8.841805 3.455871 -11.839729 0
M  V30 27 C 6.941790 6.530002 -19.126207 0
M  V30 28 C 9.622050 6.025418 -7.588274 0 CFG=1
M  V30 29 C 8.225248 4.826608 -12.033227 0 CFG=2
M  V30 30 C 5.422760 7.885399 -21.679931 0
M  V30 31 C 5.604356 7.200444 -17.108538 0 CFG=2
M  V30 32 H 5.676411 7.599583 -14.622767 0
M  V30 33 H 5.089003 5.989980 -14.391594 0
M  V30 34 H 9.439856 7.383412 -12.492983 0
M  V30 35 H 8.524661 8.121057 -11.184995 0
M  V30 36 H 10.175409 5.052456 -10.270089 0
M  V30 37 H 8.259709 7.341918 -6.489766 0
M  V30 38 H 7.966844 5.638691 -6.232993 0
M  V30 39 H 9.375374 6.403289 -5.487812 0
M  V30 40 H 7.782024 5.990221 -8.748977 0
M  V30 41 H 8.583544 4.466846 -8.689074 0
M  V30 42 H 2.638534 6.683946 -18.385024 0
M  V30 43 H 3.030486 8.390227 -18.393404 0
M  V30 44 H 11.638741 6.687889 -7.815974 0
M  V30 45 H 7.332657 7.315209 -22.464615 0
M  V30 46 H 7.456518 8.346523 -21.069284 0
M  V30 47 H 7.407526 8.390225 -13.312800 0
M  V30 48 H 6.407123 7.572212 -12.124241 0
M  V30 49 H 6.117337 5.046196 -12.294445 0
M  V30 50 H 6.890937 4.162348 -13.592230 0
M  V30 51 H 3.652785 8.584869 -20.699136 0
M  V30 52 H 5.113339 9.136476 -19.932235 0
M  V30 53 H 6.486483 5.436245 -20.917386 0
M  V30 54 H 6.122196 5.204229 -16.389236 0
M  V30 55 H 7.399828 6.378914 -16.318734 0
M  V30 56 H 3.759143 6.236983 -16.519709 0
M  V30 57 H 3.768297 7.979695 -16.233829 0
M  V30 58 H 9.213885 4.177733 -13.755783 0
M  V30 59 H 8.064908 6.269349 -14.299908 0
M  V30 60 H 11.774892 10.223592 -6.876473 0
M  V30 61 H 12.713362 8.815571 -7.339579 0
M  V30 62 H 11.775407 9.678122 -8.557198 0
M  V30 63 H 9.647592 8.963810 -7.472092 0
M  V30 64 H 10.567403 8.256639 -6.162185 0
M  V30 65 H 4.289455 6.183394 -19.885573 0
M  V30 66 H 9.546035 3.246189 -11.042698 0
M  V30 67 H 8.451430 2.598363 -12.385051 0
M  V30 68 H 7.810584 6.404704 -18.498055 0
M  V30 69 H 10.238528 5.190228 -7.284605 0
M  V30 70 H 5.950268 8.218631 -16.931460 0
M  V30 71 H 10.278822 4.794182 -12.525855 0
M  V30 END ATOM
M  V30 BEGIN BOND
M  V30 1 1 5 3
M  V30 2 1 11 2
M  V30 3 1 15 2
M  V30 4 1 15 3
M  V30 5 1 16 9
M  V30 6 1 16 13
M  V30 7 1 18 1
M  V30 8 1 19 6
M  V30 9 1 21 1
M  V30 10 1 21 11
M  V30 11 1 21 12
M  V30 12 1 22 3
M  V30 13 1 22 8
M  V30 14 1 24 8
M  V30 15 1 24 23
M  V30 16 1 25 6
M  V30 17 1 25 14
M  V30 18 1 25 17
M  V30 19 1 26 20
M  V30 20 1 27 16
M  V30 21 2 27 17
M  V30 22 1 28 4
M  V30 23 1 28 5
M  V30 24 1 28 8
M  V30 25 1 29 12
M  V30 26 1 29 15 CFG=1
M  V30 27 1 29 20
M  V30 28 1 29 26
M  V30 29 1 30 7
M  V30 30 1 30 9
M  V30 31 1 30 10
M  V30 32 1 30 14
M  V30 33 1 31 17
M  V30 34 1 31 18
M  V30 35 1 31 19
M  V30 36 1 32 1
M  V30 37 1 33 1
M  V30 38 1 34 2
M  V30 39 1 35 2
M  V30 40 1 3 36 CFG=3
M  V30 41 1 37 4
M  V30 42 1 38 4
M  V30 43 1 39 4
M  V30 44 1 40 5
M  V30 45 1 41 5
M  V30 46 1 42 6
M  V30 47 1 43 6
M  V30 48 1 8 44 CFG=3
M  V30 49 1 45 9
M  V30 50 1 46 9
M  V30 51 1 47 11
M  V30 52 1 48 11
M  V30 53 1 49 12
M  V30 54 1 50 12
M  V30 55 1 51 14
M  V30 56 1 52 14
M  V30 57 1 16 53 CFG=3
M  V30 58 1 54 18
M  V30 59 1 55 18
M  V30 60 1 56 19
M  V30 61 1 57 19
M  V30 62 1 58 20
M  V30 63 1 21 59 CFG=3
M  V30 64 1 60 23
M  V30 65 1 61 23
M  V30 66 1 62 23
M  V30 67 1 63 24
M  V30 68 1 64 24
M  V30 69 1 25 65 CFG=3
M  V30 70 1 66 26
M  V30 71 1 67 26
M  V30 72 1 68 27
M  V30 73 1 28 69 CFG=1
M  V30 74 1 31 70 CFG=3
M  V30 75 1 71 20
M  V30 END BOND
M  V30 END CTAB
M  END
>  <i_epik_Tot_Q>  (1) 
1

>  <i_epik_Tot_abs_Q>  (1) 
1

>  <i_i_glide_confnum>  (1) 
28

>  <i_i_glide_lignum>  (1) 
123

>  <i_i_glide_posenum>  (1) 
5

>  <i_i_glide_rotatable_bonds>  (1) 
5

>  <i_lp_mmshare_version>  (1) 
72125

>  <i_m_source_file_index>  (1) 
76

>  <i_f3d_flags>  (1) 
0

>  <num_sample>  (1) 
100

>  <b_lp_Chiralities_Consistent>  (1) 
1

>  <r_epik_Charging_Adjusted_Penalty>  (1) 
0.021643694203304514

>  <r_epik_Ionization_Penalty>  (1) 
0.021651518670722316

>  <r_epik_Ionization_Penalty_Charging>  (1) 
0.021643694203304514

>  <r_epik_Ionization_Penalty_Neutral>  (1) 
7.8244674178018311e-06

>  <r_epik_State_Penalty>  (1) 
-0

>  <r_glide_ring_energy>  (1) 
0

>  <r_i_docking_score>  (1) 
-4.4831322308051131

>  <r_i_glide_ecoul>  (1) 
-3.3070381373737749

>  <r_i_glide_eff_state_penalty>  (1) 
-0

>  <r_i_glide_einternal>  (1) 
0.14003639246460153

>  <r_i_glide_emodel>  (1) 
-30.399236984276058

>  <r_i_glide_emodel_strain>  (1) 
6.9020853864109881

>  <r_i_glide_energy>  (1) 
-31.837457598988699

>  <r_i_glide_erotb>  (1) 
0.38396893463604614

>  <r_i_glide_esite>  (1) 
0

>  <r_i_glide_evdw>  (1) 
-28.530419461614926

>  <r_i_glide_gscore>  (1) 
-4.4831322308051131

>  <r_i_glide_gscore_strain>  (1) 
0.72552134660274703

>  <r_i_glide_hbond>  (1) 
0

>  <r_i_glide_ligand_efficiency>  (1) 
-0.14461716873564881

>  <r_i_glide_ligand_efficiency_ln>  (1) 
-1.0110837095493317

>  <r_i_glide_ligand_efficiency_sa>  (1) 
-0.45429757586978869

>  <r_i_glide_lipo>  (1) 
-2.2217266746980533

>  <r_i_glide_metal>  (1) 
-0

>  <r_i_glide_rewards>  (1) 
-1.4483191436590404

>  <r_lp_Energy>  (1) 
29.145934999999998

>  <r_lp_tautomer_probability>  (1) 
1

>  <s_epik_Chemistry_Notes>  (1) 
This compound contains an acetal/aminal-like group ( X-CH(R)-Y where X, Y are N, S, or O) that may be acid/base labile, releasing an aldehyde.

>  <s_epik_cmdline>  (1) 
J2VwaWtfcHl0aG9uJywgJy1waHQnLCAnMS4wJywgJy1waCcsICc3LjQnLCAnLXRuJywgJzgnLCAnLW1hJywgJzUwMCcsICctaW1hZScsICc8aW5maWxlLm1hZT4nLCAnLW9tYWUnLCAnPG91dGZpbGUubWFlPic=

>  <s_epik_input>  (1) 
W0NIM11bQ0gyXVtDQEhdKFMxKVtDQEBIXShbQ0gzXSlbQ0gyXVtDQEhdMU4yW0NIMl1bQ0gyXVtDQEBIXShbQ0gyXVtDQEBdMjNbTkhdW0NIMl0zKVtDSDJdW0NIMl1bQ0BASF00W0NIMl1bQ0gyXVtDQEhdKEM0PTUpW0NIMl1DKEYpKEYpW0NIMl1bQ0BASF0oRilbQ0hdNQ==

>  <s_glide_docking_method>  (1) 
confgen

>  <s_i_glide_gridfile>  (1) 
gpcr_drd2_6luq_protein_autoprepared_prepared

>  <s_lp_Force_Field>  (1) 
S-OPLS

>  <s_lp_Variant>  (1) 
DiffSBDD_75-1

>  <s_m_source_file>  (1) 
generated_generic_title2_ligand_DiffSBDD_2026-06-23_prepared.sdf

>  <GenAI_Model>  (1) 
DiffSBDD

>  <Protein>  (1) 
generic_title2

$$$$
DiffSBDD_61
     RDKit          3D

  0  0  0  0  0  0  0  0  0  0999 V3000
M  V30 BEGIN CTAB
M  V30 COUNTS 46 47 0 0 1
M  V30 BEGIN ATOM
M  V30 1 C 8.092033 5.055585 -9.911585 0
M  V30 2 O 5.814442 5.297663 -13.654652 0 CHG=-1
M  V30 3 C 6.377546 -0.510674 -18.007084 0
M  V30 4 O 7.819763 6.228429 -12.336578 0
M  V30 5 N 9.375516 6.969793 -8.885032 0 CFG=2 CHG=1
M  V30 6 O 6.373321 -1.533175 -18.724707 0 CHG=-1
M  V30 7 C 7.406050 2.533468 -13.910062 0
M  V30 8 C 9.290224 6.027011 -10.028578 0 CFG=2
M  V30 9 P 9.225997 6.938094 -11.686274 0
M  V30 10 F 7.527723 2.119852 -17.557330 0
M  V30 11 C 10.242761 7.143624 -6.618845 0
M  V30 12 N 6.896473 -0.606889 -16.760965 0
M  V30 13 O 6.975483 7.411556 -14.496116 0
M  V30 14 O 8.987322 8.382309 -11.463550 0 CHG=-1
M  V30 15 C 6.975402 0.196584 -14.448821 0
M  V30 16 O 8.190847 5.139523 -14.689958 0
M  V30 17 F 11.774098 8.888681 -7.092457 0
M  V30 18 P 7.056739 6.084660 -13.845862 0
M  V30 19 C 7.067405 0.483753 -15.826559 0
M  V30 20 C 7.361852 1.820194 -16.248850 0
M  V30 21 C 10.521258 7.907223 -8.867220 0
M  V30 22 C 9.326168 6.335732 -7.544420 0
M  V30 23 C 10.583854 8.391615 -7.420635 0 CFG=1
M  V30 24 C 7.521118 2.837641 -15.284134 0
M  V30 25 O 5.892557 0.567266 -18.406949 0
M  V30 26 C 7.824434 4.262063 -15.732759 0
M  V30 27 C 7.139612 1.217442 -13.496926 0
M  V30 28 O 10.440534 6.505549 -12.408306 0
M  V30 29 H 8.141772 4.418889 -9.027252 0
M  V30 30 H 7.141896 5.589489 -9.878256 0
M  V30 31 H 8.060023 4.372028 -10.760170 0
M  V30 32 H 7.530158 3.309894 -13.171010 0
M  V30 33 H 10.175441 5.406459 -10.011572 0
M  V30 34 H 9.776913 7.377150 -5.661380 0
M  V30 35 H 11.149312 6.570372 -6.417527 0
M  V30 36 H 7.143161 -1.529340 -16.431002 0
M  V30 37 H 6.766926 -0.809515 -14.121757 0
M  V30 38 H 11.434594 7.367708 -9.125433 0
M  V30 39 H 10.420419 8.746303 -9.554002 0
M  V30 40 H 8.296354 6.322001 -7.185320 0
M  V30 41 H 9.679391 5.304391 -7.582789 0
M  V30 42 H 9.850502 9.185201 -7.241605 0
M  V30 43 H 8.659104 4.233290 -16.434213 0
M  V30 44 H 6.970918 4.662577 -16.280346 0
M  V30 45 H 7.058941 0.989845 -12.444254 0
M  V30 46 H 8.515907 7.525971 -8.990189 0
M  V30 END ATOM
M  V30 BEGIN BOND
M  V30 1 1 6 3
M  V30 2 1 8 1
M  V30 3 1 8 5
M  V30 4 1 9 4
M  V30 5 1 9 8
M  V30 6 1 12 3
M  V30 7 1 14 9
M  V30 8 1 18 2
M  V30 9 1 18 4
M  V30 10 2 18 13
M  V30 11 1 18 16
M  V30 12 1 19 12
M  V30 13 2 19 15
M  V30 14 1 20 10
M  V30 15 1 20 19
M  V30 16 1 21 5
M  V30 17 1 22 5
M  V30 18 1 22 11
M  V30 19 1 23 11
M  V30 20 1 23 17
M  V30 21 1 23 21
M  V30 22 1 24 7
M  V30 23 2 24 20
M  V30 24 2 25 3
M  V30 25 1 26 16
M  V30 26 1 26 24
M  V30 27 2 27 7
M  V30 28 1 27 15
M  V30 29 2 28 9
M  V30 30 1 29 1
M  V30 31 1 30 1
M  V30 32 1 31 1
M  V30 33 1 32 7
M  V30 34 1 8 33 CFG=3
M  V30 35 1 34 11
M  V30 36 1 35 11
M  V30 37 1 36 12
M  V30 38 1 37 15
M  V30 39 1 38 21
M  V30 40 1 39 21
M  V30 41 1 40 22
M  V30 42 1 41 22
M  V30 43 1 23 42 CFG=3
M  V30 44 1 43 26
M  V30 45 1 44 26
M  V30 46 1 45 27
M  V30 47 1 5 46 CFG=1
M  V30 END BOND
M  V30 END CTAB
M  END
>  <i_epik_Tot_Q>  (1) 
-2

>  <i_epik_Tot_abs_Q>  (1) 
4

>  <i_i_glide_confnum>  (1) 
219

>  <i_i_glide_lignum>  (1) 
96

>  <i_i_glide_posenum>  (1) 
52

>  <i_i_glide_rotatable_bonds>  (1) 
9

>  <i_lp_mmshare_version>  (1) 
72125

>  <i_m_source_file_index>  (1) 
62

>  <i_f3d_flags>  (1) 
0

>  <num_sample>  (1) 
100

>  <b_lp_Chiralities_Consistent>  (1) 
1

>  <r_epik_Charging_Adjusted_Penalty>  (1) 
0.22521151081801519

>  <r_epik_Ionization_Penalty>  (1) 
0.079461215956128484

>  <r_epik_Ionization_Penalty_Charging>  (1) 
0.079461215147622277

>  <r_epik_Ionization_Penalty_Neutral>  (1) 
8.0850620194651714e-10

>  <r_epik_State_Penalty>  (1) 
0.14575029567039291

>  <r_glide_ring_energy>  (1) 
0

>  <r_i_docking_score>  (1) 
-4.4709291996399516

>  <r_i_glide_ecoul>  (1) 
-3.0125372442057974

>  <r_i_glide_eff_state_penalty>  (1) 
0.14575029567039291

>  <r_i_glide_einternal>  (1) 
23.817162811005115

>  <r_i_glide_emodel>  (1) 
-37.85443559495949

>  <r_i_glide_emodel_strain>  (1) 
1.8226317915590826

>  <r_i_glide_energy>  (1) 
-37.508196544729039

>  <r_i_glide_erotb>  (1) 
0.71514179105455389

>  <r_i_glide_esite>  (1) 
-0.15097403211721

>  <r_i_glide_evdw>  (1) 
-34.495659300523243

>  <r_i_glide_gscore>  (1) 
-4.6166794953103443

>  <r_i_glide_gscore_strain>  (1) 
0

>  <r_i_glide_hbond>  (1) 
-0.42149542225822473

>  <r_i_glide_ligand_efficiency>  (1) 
-0.15967604284428399

>  <r_i_glide_ligand_efficiency_ln>  (1) 
-1.032021731462335

>  <r_i_glide_ligand_efficiency_sa>  (1) 
-0.48487051077369864

>  <r_i_glide_lipo>  (1) 
-1.2342870836610675

>  <r_i_glide_metal>  (1) 
-0

>  <r_i_glide_rewards>  (1) 
-1.3484011966713638

>  <r_lp_Energy>  (1) 
8.1711899999999993

>  <s_epik_cmdline>  (1) 
J2VwaWtfcHl0aG9uJywgJy1waHQnLCAnMS4wJywgJy1waCcsICc3LjQnLCAnLXRuJywgJzgnLCAnLW1hJywgJzUwMCcsICctaW1hZScsICc8aW5maWxlLm1hZT4nLCAnLW9tYWUnLCAnPG91dGZpbGUubWFlPic=

>  <s_epik_input>  (1) 
W0NIMl0xW0NIMl1bQ0BASF0oRilbQ0gyXU4xW0NAQEhdKFtDSDNdKVtQQF0oPU8pKFtPSF0pT1tQQEBdKD1PKShbT0hdKU9bQ0gyXWMoYzJGKVtjSF1bY0hdW2NIXWMyW05IXUMoPU8pW09IXQ==

>  <s_glide_docking_method>  (1) 
confgen

>  <s_i_glide_gridfile>  (1) 
gpcr_drd2_6luq_protein_autoprepared_prepared

>  <s_lp_Force_Field>  (1) 
S-OPLS

>  <s_lp_Variant>  (1) 
DiffSBDD_61-1

>  <s_m_source_file>  (1) 
generated_generic_title2_ligand_DiffSBDD_2026-06-23_prepared.sdf

>  <GenAI_Model>  (1) 
DiffSBDD

>  <Protein>  (1) 
generic_title2

$$$$
DiffSBDD_90
     RDKit          3D

  0  0  0  0  0  0  0  0  0  0999 V3000
M  V30 BEGIN CTAB
M  V30 COUNTS 80 84 0 0 1
M  V30 BEGIN ATOM
M  V30 1 C 8.820929 3.720046 -16.999707 0
M  V30 2 C 7.679098 2.701083 -16.968594 0 CFG=1
M  V30 3 C 7.585077 -0.390678 -18.907975 0
M  V30 4 C 9.571278 5.966659 -11.036969 0 CFG=2
M  V30 5 C 8.977207 1.285568 -18.773117 0
M  V30 6 C 7.083753 -1.655754 -19.387786 0 CFG=2
M  V30 7 C 7.738237 4.039273 -13.409035 0 CFG=2
M  V30 8 O 7.799671 5.583301 -16.186207 0 CHG=-1
M  V30 9 C 8.576499 4.614306 -15.774414 0 CFG=1
M  V30 10 C 9.077938 8.470015 -10.640620 0
M  V30 11 O 12.766107 7.991505 -8.326280 0
M  V30 12 C 7.944371 1.543919 -17.886886 0
M  V30 13 C 8.071260 1.302583 -14.682427 0 CFG=2
M  V30 14 O 11.990464 8.390829 -10.385011 0 CHG=-1
M  V30 15 O 10.338631 6.355012 -12.022131 0 CHG=-1
M  V30 16 C 7.879830 5.562842 -13.033673 0 CFG=2
M  V30 17 N 8.186167 5.827200 -11.591723 0 CHG=1
M  V30 18 N 7.664546 3.855530 -14.893081 0 CFG=1 CHG=1
M  V30 19 C 10.702566 7.390939 -6.510549 0
M  V30 20 C 6.652205 6.428805 -13.440829 0
M  V30 21 O 8.175526 0.045758 -15.316528 0
M  V30 22 O 7.035641 7.413649 -14.374820 0
M  V30 23 O 6.176787 0.968005 -12.405790 0
M  V30 24 C 6.591487 1.604237 -14.668486 0 CFG=1
M  V30 25 C 11.893766 7.950053 -9.225097 0
M  V30 26 C 6.478228 3.378228 -12.762668 0
M  V30 27 N 8.676732 0.091074 -19.358588 0
M  V30 28 O 10.774117 8.605201 -6.304250 0
M  V30 29 C 8.260337 -1.838274 -20.466930 0
M  V30 30 N 7.093693 0.461287 -18.010278 0 CHG=1
M  V30 31 C 9.482851 7.118176 -9.992024 0 CFG=2
M  V30 32 O 5.129986 -3.691953 -19.331430 0
M  V30 33 O 5.785546 -1.557351 -19.951963 0
M  V30 34 C 5.269038 -2.779836 -20.372692 0
M  V30 35 C 11.106154 6.404677 -5.422329 0
M  V30 36 C 10.544342 7.247409 -8.855280 0
M  V30 37 C 5.993944 2.016162 -13.338194 0 CFG=2
M  V30 38 C 4.171275 -3.311527 -18.356791 0
M  V30 39 N 10.269895 6.778533 -7.679759 0
M  V30 40 C 9.353608 -0.667910 -20.352826 0
M  V30 41 C 7.525565 2.491126 -15.466113 0 CFG=1
M  V30 42 H 9.775200 3.206171 -16.861311 0
M  V30 43 H 8.889425 4.268663 -17.941987 0
M  V30 44 H 6.776495 3.193415 -17.331094 0
M  V30 45 H 9.759348 5.038745 -10.496018 0
M  V30 46 H 9.863496 1.850521 -19.022151 0
M  V30 47 H 7.150908 -2.360292 -18.558705 0
M  V30 48 H 8.638641 3.533479 -13.058528 0
M  V30 49 H 9.541569 4.763183 -15.285933 0
M  V30 50 H 8.971188 9.240267 -9.880363 0
M  V30 51 H 9.813684 8.788422 -11.374255 0
M  V30 52 H 8.145333 8.420498 -11.200277 0
M  V30 53 H 8.636410 1.395995 -13.758822 0
M  V30 54 H 8.700559 5.962785 -13.619225 0
M  V30 55 H 7.847773 6.770810 -11.449606 0
M  V30 56 H 6.179709 6.911432 -12.584609 0
M  V30 57 H 5.877976 5.850926 -13.942658 0
M  V30 58 H 7.999027 -0.641459 -14.689254 0
M  V30 59 H 7.366742 6.937567 -15.149820 0
M  V30 60 H 5.740000 0.187337 -12.719815 0
M  V30 61 H 5.949095 0.942106 -15.248265 0
M  V30 62 H 6.597118 3.311647 -11.681336 0
M  V30 63 H 5.623622 4.042003 -12.871106 0
M  V30 64 H 8.725672 -2.818403 -20.365497 0
M  V30 65 H 7.836752 -1.810511 -21.471980 0
M  V30 66 H 8.617944 6.790296 -9.412779 0
M  V30 67 H 4.305126 -2.610884 -20.851343 0
M  V30 68 H 5.924929 -3.221484 -21.122390 0
M  V30 69 H 11.705478 6.902191 -4.660578 0
M  V30 70 H 10.221181 5.990617 -4.942611 0
M  V30 71 H 11.705042 5.595666 -5.842012 0
M  V30 72 H 4.922121 2.087353 -13.510862 0
M  V30 73 H 4.113870 -4.077743 -17.584204 0
M  V30 74 H 4.446279 -2.375015 -17.871369 0
M  V30 75 H 3.175245 -3.202477 -18.787404 0
M  V30 76 H 9.462621 -0.077096 -21.263548 0
M  V30 77 H 10.315555 -0.988910 -19.961928 0
M  V30 78 H 6.230642 0.329260 -17.497927 0
M  V30 79 H 7.638451 5.242165 -10.980473 0
M  V30 80 H 6.809367 4.321790 -15.155916 0
M  V30 END ATOM
M  V30 BEGIN BOND
M  V30 1 1 2 1
M  V30 2 1 6 3
M  V30 3 1 9 1
M  V30 4 1 9 8
M  V30 5 1 12 2
M  V30 6 2 12 5
M  V30 7 1 15 4
M  V30 8 1 16 7
M  V30 9 1 17 4
M  V30 10 1 17 16
M  V30 11 1 18 7
M  V30 12 1 18 9
M  V30 13 1 20 16
M  V30 14 1 21 13
M  V30 15 1 22 20
M  V30 16 1 24 13
M  V30 17 2 25 11
M  V30 18 1 25 14
M  V30 19 1 26 7
M  V30 20 1 27 3
M  V30 21 1 27 5
M  V30 22 2 28 19
M  V30 23 1 29 6
M  V30 24 2 30 3
M  V30 25 1 30 12
M  V30 26 1 31 4
M  V30 27 1 31 10
M  V30 28 1 33 6
M  V30 29 1 34 32
M  V30 30 1 34 33
M  V30 31 1 35 19
M  V30 32 1 36 25
M  V30 33 1 36 31
M  V30 34 1 37 23
M  V30 35 1 37 24
M  V30 36 1 37 26
M  V30 37 1 38 32
M  V30 38 1 39 19
M  V30 39 2 39 36
M  V30 40 1 40 27
M  V30 41 1 40 29
M  V30 42 1 41 2 CFG=3
M  V30 43 1 41 13
M  V30 44 1 41 18
M  V30 45 1 41 24
M  V30 46 1 42 1
M  V30 47 1 43 1
M  V30 48 1 2 44 CFG=3
M  V30 49 1 4 45 CFG=1
M  V30 50 1 46 5
M  V30 51 1 6 47 CFG=1
M  V30 52 1 7 48 CFG=1
M  V30 53 1 9 49 CFG=1
M  V30 54 1 50 10
M  V30 55 1 51 10
M  V30 56 1 52 10
M  V30 57 1 13 53 CFG=1
M  V30 58 1 16 54 CFG=3
M  V30 59 1 55 17
M  V30 60 1 56 20
M  V30 61 1 57 20
M  V30 62 1 58 21
M  V30 63 1 59 22
M  V30 64 1 60 23
M  V30 65 1 24 61 CFG=3
M  V30 66 1 62 26
M  V30 67 1 63 26
M  V30 68 1 64 29
M  V30 69 1 65 29
M  V30 70 1 31 66 CFG=1
M  V30 71 1 67 34
M  V30 72 1 68 34
M  V30 73 1 69 35
M  V30 74 1 70 35
M  V30 75 1 71 35
M  V30 76 1 37 72 CFG=3
M  V30 77 1 73 38
M  V30 78 1 74 38
M  V30 79 1 75 38
M  V30 80 1 76 40
M  V30 81 1 77 40
M  V30 82 1 78 30
M  V30 83 1 79 17
M  V30 84 1 18 80 CFG=3
M  V30 END BOND
M  V30 END CTAB
M  END
>  <i_epik_Tot_Q>  (1) 
0

>  <i_epik_Tot_abs_Q>  (1) 
6

>  <i_i_glide_confnum>  (1) 
2838

>  <i_i_glide_lignum>  (1) 
166

>  <i_i_glide_posenum>  (1) 
373

>  <i_i_glide_rotatable_bonds>  (1) 
15

>  <i_lp_mmshare_version>  (1) 
72125

>  <i_m_source_file_index>  (1) 
91

>  <i_f3d_flags>  (1) 
0

>  <num_sample>  (1) 
100

>  <b_lp_Chiralities_Consistent>  (1) 
1

>  <r_epik_Charging_Adjusted_Penalty>  (1) 
0.35079833336250127

>  <r_epik_Ionization_Penalty>  (1) 
1.4702178244609605

>  <r_epik_Ionization_Penalty_Charging>  (1) 
0.099885809697688246

>  <r_epik_Ionization_Penalty_Neutral>  (1) 
1.3703320147632723

>  <r_epik_State_Penalty>  (1) 
0.25091252366481304

>  <r_glide_ring_energy>  (1) 
0

>  <r_i_docking_score>  (1) 
-4.470476506859888

>  <r_i_glide_ecoul>  (1) 
-6.32467435714074

>  <r_i_glide_eff_state_penalty>  (1) 
0.25091252366481304

>  <r_i_glide_einternal>  (1) 
10.95098622853012

>  <r_i_glide_emodel>  (1) 
-46.249776622585074

>  <r_i_glide_emodel_strain>  (1) 
5.6190281028970332

>  <r_i_glide_energy>  (1) 
-43.780363933900247

>  <r_i_glide_erotb>  (1) 
0.57888693115673628

>  <r_i_glide_esite>  (1) 
-0.10338096686629394

>  <r_i_glide_evdw>  (1) 
-37.455689576759504

>  <r_i_glide_gscore>  (1) 
-4.7213890305247013

>  <r_i_glide_gscore_strain>  (1) 
0.40475702572425831

>  <r_i_glide_hbond>  (1) 
-0.016854571025434896

>  <r_i_glide_ligand_efficiency>  (1) 
-0.10903601236243629

>  <r_i_glide_ligand_efficiency_ln>  (1) 
-0.9484264679940726

>  <r_i_glide_ligand_efficiency_sa>  (1) 
-0.37597985765073738

>  <r_i_glide_lipo>  (1) 
-1.4832684667361142

>  <r_i_glide_metal>  (1) 
-0

>  <r_i_glide_rewards>  (1) 
-1.2800433503687658

>  <r_lp_Energy>  (1) 
62.791187999999998

>  <r_lp_tautomer_probability>  (1) 
1

>  <s_epik_Chemistry_Notes>  (1) 
This compound has an imine and may undergo hydrolysis. This compound contains an acetal/aminal-like group ( X-CH(R)-Y where X, Y are N, S, or O) that may be acid/base labile, releasing an aldehyde.

>  <s_epik_cmdline>  (1) 
J2VwaWtfcHl0aG9uJywgJy1waHQnLCAnMS4wJywgJy1waCcsICc3LjQnLCAnLXRuJywgJzgnLCAnLW1hJywgJzUwMCcsICctaW1hZScsICc8aW5maWxlLm1hZT4nLCAnLW9tYWUnLCAnPG91dGZpbGUubWFlPic=

>  <s_epik_input>  (1) 
W0NIM11PW0NIMl1PW0NASF0xW0NIMl1bQ0gyXW4oYzEyKVtjSF1jKG4yKVtDQEBIXTNbQ0gyXVtDQEBIXShbT0hdKU4oW0NAQF0zNDUpW0NASF0oW0NIMl1bQ0BIXShbT0hdKVtDQEBIXTVbQ0BIXTRbT0hdKVtDQEBIXShbQ0gyXVtPSF0pW05IXVtDQEBIXShbT0hdKVtDQEhdKFtDSDNdKUMoXEMoPU8pW09IXSk9Ti9DKD1PKVtDSDNd

>  <s_glide_docking_method>  (1) 
confgen

>  <s_i_glide_gridfile>  (1) 
gpcr_drd2_6luq_protein_autoprepared_prepared

>  <s_lp_Force_Field>  (1) 
S-OPLS

>  <s_lp_Variant>  (1) 
DiffSBDD_90-1

>  <s_m_source_file>  (1) 
generated_generic_title2_ligand_DiffSBDD_2026-06-23_prepared.sdf

>  <GenAI_Model>  (1) 
DiffSBDD

>  <Protein>  (1) 
generic_title2

$$$$
DiffSBDD_21
     RDKit          3D

  0  0  0  0  0  0  0  0  0  0999 V3000
M  V30 BEGIN CTAB
M  V30 COUNTS 75 79 0 0 1
M  V30 BEGIN ATOM
M  V30 1 F 8.958788 3.943625 -11.440157 0
M  V30 2 O 7.218180 5.522514 -15.070620 0
M  V30 3 O 7.618594 1.603163 -17.821190 0
M  V30 4 C 6.233391 -1.618588 -17.863503 0 CFG=1
M  V30 5 C 6.542486 -0.352587 -17.093524 0 CFG=2
M  V30 6 C 7.645780 3.189066 -14.866485 0 CFG=2
M  V30 7 C 10.121473 5.828478 -8.308491 0
M  V30 8 N 8.975385 6.790281 -10.869556 0
M  V30 9 C 5.369883 -1.214661 -16.696082 0
M  V30 10 C 9.607961 7.249066 -8.435689 0 CFG=1
M  V30 11 C 7.706212 3.821699 -13.476402 0 CFG=1
M  V30 12 C 10.531823 8.294450 -7.776020 0 CFG=2
M  V30 13 C 11.709743 8.595851 -8.752268 0 CFG=1
M  V30 14 C 8.956700 3.411076 -12.661633 0
M  V30 15 C 9.539170 7.714970 -9.900271 0 CFG=1
M  V30 16 O 12.918287 7.990435 -8.331879 0
M  V30 17 C 7.764661 0.118445 -14.856898 0
M  V30 18 C 6.458599 0.189739 -19.474363 0 CFG=1
M  V30 19 C 8.242731 8.602349 -12.369344 0
M  V30 20 O 11.774463 8.462801 -4.407460 0 CHG=-1
M  V30 21 C 6.633358 1.038829 -14.375106 0
M  V30 22 C 14.046727 8.390152 -9.095174 0
M  V30 23 S 11.229126 7.990249 -10.385010 0
M  V30 24 C 7.613630 5.297960 -13.788791 0
M  V30 25 C 5.681604 1.020281 -20.505082 0
M  V30 26 C 7.428385 4.354517 -15.842075 0
M  V30 27 C 11.384705 8.852407 -5.529261 0
M  V30 28 N 10.981150 7.938737 -6.425907 0
M  V30 29 C 6.466898 0.804900 -18.058668 0 CFG=2
M  V30 30 O 6.575601 2.282074 -15.046528 0
M  V30 31 O 11.366697 10.064634 -5.837590 0
M  V30 32 C 8.376721 7.119019 -12.077783 0
M  V30 33 C 5.926373 -1.243065 -19.294834 0
M  V30 34 C 7.949137 6.224525 -12.928498 0
M  V30 35 C 8.622798 0.799873 -17.215678 0
M  V30 36 C 9.358063 4.743151 -8.475644 0
M  V30 37 C 7.862386 -0.227603 -16.369475 0 CFG=2
M  V30 38 H 6.889722 -2.477372 -17.725787 0
M  V30 39 H 8.575335 2.703384 -15.121489 0
M  V30 40 H 11.167364 5.712028 -8.072162 0
M  V30 41 H 9.075106 5.809005 -10.642801 0
M  V30 42 H 4.369075 -0.842753 -16.911184 0
M  V30 43 H 5.462714 -1.782559 -15.775550 0
M  V30 44 H 8.617993 7.280073 -7.977543 0
M  V30 45 H 6.812121 3.567535 -12.904073 0
M  V30 46 H 9.917477 9.190312 -7.698706 0
M  V30 47 H 11.840254 9.675827 -8.802350 0
M  V30 48 H 9.013096 2.332566 -12.517768 0
M  V30 49 H 9.869708 3.748991 -13.142235 0
M  V30 50 H 9.010548 8.667729 -9.927903 0
M  V30 51 H 8.712121 0.498606 -14.488133 0
M  V30 52 H 7.620454 -0.809846 -14.318418 0
M  V30 53 H 7.493359 0.109510 -19.812581 0
M  V30 54 H 7.775393 8.773503 -13.339102 0
M  V30 55 H 7.611046 9.078201 -11.618104 0
M  V30 56 H 9.216870 9.086486 -12.384424 0
M  V30 57 H 6.717517 1.196235 -13.299273 0
M  V30 58 H 5.672833 0.546571 -14.524055 0
M  V30 59 H 14.742277 7.558114 -9.185003 0
M  V30 60 H 13.822115 8.733354 -10.105414 0
M  V30 61 H 14.552657 9.190187 -8.554169 0
M  V30 62 H 4.627298 1.101427 -20.240040 0
M  V30 63 H 6.085451 2.029023 -20.575963 0
M  V30 64 H 5.742399 0.571868 -21.496419 0
M  V30 65 H 6.587251 4.198447 -16.514350 0
M  V30 66 H 8.316847 4.499419 -16.457962 0
M  V30 67 H 10.998010 6.963771 -6.173456 0
M  V30 68 H 5.560077 1.381613 -17.869879 0
M  V30 69 H 4.849437 -1.294708 -19.456400 0
M  V30 70 H 6.402612 -1.937765 -19.987605 0
M  V30 71 H 9.352851 1.387170 -16.663120 0
M  V30 72 H 9.167991 0.285149 -18.009642 0
M  V30 73 H 8.305857 4.831232 -8.710256 0
M  V30 74 H 9.775542 3.754651 -8.384976 0
M  V30 75 H 8.398823 -1.175789 -16.437241 0
M  V30 END ATOM
M  V30 BEGIN BOND
M  V30 1 1 5 4
M  V30 2 1 9 4
M  V30 3 1 5 9 CFG=1
M  V30 4 1 10 7
M  V30 5 1 11 6
M  V30 6 1 12 10
M  V30 7 1 13 12
M  V30 8 1 14 1
M  V30 9 1 14 11
M  V30 10 1 15 8
M  V30 11 1 15 10
M  V30 12 1 16 13
M  V30 13 1 21 17
M  V30 14 1 22 16
M  V30 15 1 23 13
M  V30 16 1 23 15
M  V30 17 1 24 2
M  V30 18 1 24 11
M  V30 19 1 25 18
M  V30 20 1 26 2
M  V30 21 1 26 6
M  V30 22 1 27 20
M  V30 23 1 28 12
M  V30 24 1 28 27
M  V30 25 1 29 3
M  V30 26 1 29 5
M  V30 27 1 29 18
M  V30 28 1 30 6
M  V30 29 1 30 21
M  V30 30 2 31 27
M  V30 31 1 32 8
M  V30 32 1 32 19
M  V30 33 1 33 4
M  V30 34 1 33 18
M  V30 35 2 34 24
M  V30 36 2 34 32
M  V30 37 1 35 3
M  V30 38 2 36 7
M  V30 39 1 37 5
M  V30 40 1 37 17
M  V30 41 1 37 35
M  V30 42 1 4 38 CFG=3
M  V30 43 1 6 39 CFG=3
M  V30 44 1 40 7
M  V30 45 1 41 8
M  V30 46 1 42 9
M  V30 47 1 43 9
M  V30 48 1 10 44 CFG=1
M  V30 49 1 11 45 CFG=1
M  V30 50 1 12 46 CFG=1
M  V30 51 1 13 47 CFG=3
M  V30 52 1 48 14
M  V30 53 1 49 14
M  V30 54 1 15 50 CFG=1
M  V30 55 1 51 17
M  V30 56 1 52 17
M  V30 57 1 18 53 CFG=3
M  V30 58 1 54 19
M  V30 59 1 55 19
M  V30 60 1 56 19
M  V30 61 1 57 21
M  V30 62 1 58 21
M  V30 63 1 59 22
M  V30 64 1 60 22
M  V30 65 1 61 22
M  V30 66 1 62 25
M  V30 67 1 63 25
M  V30 68 1 64 25
M  V30 69 1 65 26
M  V30 70 1 66 26
M  V30 71 1 67 28
M  V30 72 1 29 68 CFG=1
M  V30 73 1 69 33
M  V30 74 1 70 33
M  V30 75 1 71 35
M  V30 76 1 72 35
M  V30 77 1 73 36
M  V30 78 1 74 36
M  V30 79 1 37 75 CFG=1
M  V30 END BOND
M  V30 END CTAB
M  END
>  <i_epik_Tot_Q>  (1) 
-1

>  <i_epik_Tot_abs_Q>  (1) 
1

>  <i_i_glide_confnum>  (1) 
265

>  <i_i_glide_lignum>  (1) 
38

>  <i_i_glide_posenum>  (1) 
146

>  <i_i_glide_rotatable_bonds>  (1) 
11

>  <i_lp_mmshare_version>  (1) 
72125

>  <i_m_source_file_index>  (1) 
22

>  <i_f3d_flags>  (1) 
0

>  <num_sample>  (1) 
100

>  <b_lp_Chiralities_Consistent>  (1) 
1

>  <r_epik_Charging_Adjusted_Penalty>  (1) 
0.00061310518503501809

>  <r_epik_Ionization_Penalty>  (1) 
0.00061311684036178345

>  <r_epik_Ionization_Penalty_Charging>  (1) 
0.00061310518503501809

>  <r_epik_Ionization_Penalty_Neutral>  (1) 
1.1655326765339942e-08

>  <r_epik_State_Penalty>  (1) 
-0

>  <r_glide_ring_energy>  (1) 
0.25431791977597118

>  <r_i_docking_score>  (1) 
-4.4630568084260984

>  <r_i_glide_ecoul>  (1) 
-3.6538227640035243

>  <r_i_glide_eff_state_penalty>  (1) 
-0

>  <r_i_glide_einternal>  (1) 
10.473571202577057

>  <r_i_glide_emodel>  (1) 
-36.090332882575034

>  <r_i_glide_emodel_strain>  (1) 
3.8721821724465002

>  <r_i_glide_energy>  (1) 
-37.663442731610267

>  <r_i_glide_erotb>  (1) 
0.57165655028623308

>  <r_i_glide_esite>  (1) 
-0.095473964242961451

>  <r_i_glide_evdw>  (1) 
-34.009619967606746

>  <r_i_glide_gscore>  (1) 
-4.4630568084260984

>  <r_i_glide_gscore_strain>  (1) 
0

>  <r_i_glide_hbond>  (1) 
0

>  <r_i_glide_ligand_efficiency>  (1) 
-0.12062315698448915

>  <r_i_glide_ligand_efficiency_ln>  (1) 
-0.96793239285118149

>  <r_i_glide_ligand_efficiency_sa>  (1) 
-0.40194311951823497

>  <r_i_glide_lipo>  (1) 
-1.7074380716613056

>  <r_i_glide_metal>  (1) 
-0

>  <r_i_glide_rewards>  (1) 
-0.98324690982719853

>  <r_lp_Energy>  (1) 
-4.7551119999999996

>  <r_lp_tautomer_probability>  (1) 
1

>  <s_epik_Chemistry_Notes>  (1) 
This compound contains an acetal/aminal-like group ( X-CH(R)-Y where X, Y are N, S, or O) that may be acid/base labile, releasing an aldehyde.

>  <s_epik_cmdline>  (1) 
J2VwaWtfcHl0aG9uJywgJy1waHQnLCAnMS4wJywgJy1waCcsICc3LjQnLCAnLXRuJywgJzgnLCAnLW1hJywgJzUwMCcsICctaW1hZScsICc8aW5maWxlLm1hZT4nLCAnLW9tYWUnLCAnPG91dGZpbGUubWFlPic=

>  <s_epik_input>  (1) 
W09IXUMoPU8pW05IXVtDQEhdKFtDQEBIXTFbQ0hdPVtDSDJdKVtDQEBIXShPW0NIM10pU1tDQEhdMVtOSF1DKFtDSDNdKT1DPUMoT1tDSDJdMilbQ0BIXShbQ0gyXUYpW0NASF0yT1tDSDJdW0NIMl1bQ0BASF0zW0NIMl1PW0NASF00W0NASF0oW0NIM10pW0NIMl1bQ0BASF0oW0NAQF0zNDUpW0NIMl01

>  <s_glide_docking_method>  (1) 
confgen

>  <s_i_glide_gridfile>  (1) 
gpcr_drd2_6luq_protein_autoprepared_prepared

>  <s_lp_Force_Field>  (1) 
S-OPLS

>  <s_lp_Variant>  (1) 
DiffSBDD_21-1

>  <s_m_source_file>  (1) 
generated_generic_title2_ligand_DiffSBDD_2026-06-23_prepared.sdf

>  <GenAI_Model>  (1) 
DiffSBDD

>  <Protein>  (1) 
generic_title2

$$$$
DiffSBDD_48
     RDKit          3D

  0  0  0  0  0  0  0  0  0  0999 V3000
M  V30 BEGIN CTAB
M  V30 COUNTS 50 51 0 0 1
M  V30 BEGIN ATOM
M  V30 1 C 11.342598 9.857313 -5.399082 0
M  V30 2 S 6.176141 4.471538 -12.866418 0
M  V30 3 O 10.975270 10.789040 -4.785475 0
M  V30 4 N 4.925072 6.892424 -16.787538 0
M  V30 5 C 9.914949 7.143512 -10.780907 0
M  V30 6 C 8.974351 5.629365 -9.115082 0
M  V30 7 O 5.854693 3.069658 -13.172095 0
M  V30 8 C 12.047488 6.977648 -3.663809 0
M  V30 9 O 10.836926 6.806787 -7.235869 0
M  V30 10 O 5.459315 5.257469 -11.852509 0
M  V30 11 N 7.871039 4.534522 -12.506118 0
M  V30 12 C 8.585152 4.814276 -14.855732 0
M  V30 13 C 10.889294 7.484348 -5.981502 0 CFG=2
M  V30 14 C 9.295714 6.401240 -11.805018 0
M  V30 15 C 3.850101 7.189930 -17.400091 0
M  V30 16 N 6.224682 5.341148 -14.348884 0
M  V30 17 C 8.501763 5.274115 -11.486765 0
M  V30 18 C 10.381141 7.587922 -8.331085 0
M  V30 19 C 11.693749 8.779714 -6.052856 0
M  V30 20 C 8.343739 4.892608 -10.140119 0
M  V30 21 C 8.748675 4.023037 -13.545599 0
M  V30 22 O 5.612137 5.362979 -18.428741 0
M  V30 23 C 9.753760 6.761188 -9.434689 0
M  V30 24 C 5.798378 5.990717 -17.381872 0
M  V30 25 C 7.111062 5.820985 -16.612883 0
M  V30 26 C 7.137251 4.867024 -15.402452 0 CFG=1
M  V30 27 C 11.433316 6.445849 -4.973790 0
M  V30 28 H 10.505898 8.011215 -11.028626 0
M  V30 29 H 8.842296 5.339409 -8.082947 0
M  V30 30 H 12.307418 6.147128 -3.006517 0
M  V30 31 H 12.955938 7.547995 -3.847662 0
M  V30 32 H 11.375384 7.624470 -3.107930 0
M  V30 33 H 8.953745 5.827910 -14.715751 0
M  V30 34 H 9.239293 4.377702 -15.610623 0
M  V30 35 H 9.868089 7.734251 -5.683309 0
M  V30 36 H 9.419785 6.704017 -12.828603 0
M  V30 37 H 3.137301 7.889704 -16.955748 0
M  V30 38 H 3.615630 6.758456 -18.378460 0
M  V30 39 H 6.232382 6.350313 -14.202413 0
M  V30 40 H 9.614936 8.292941 -8.002843 0
M  V30 41 H 11.210574 8.172683 -8.729283 0
M  V30 42 H 12.575034 8.771629 -6.675158 0
M  V30 43 H 7.732870 4.040104 -9.891921 0
M  V30 44 H 9.782596 4.037221 -13.209147 0
M  V30 45 H 8.501061 2.974371 -13.715044 0
M  V30 46 H 7.375215 6.790260 -16.223240 0
M  V30 47 H 7.889309 5.543588 -17.324960 0
M  V30 48 H 6.828006 3.864669 -15.702047 0
M  V30 49 H 10.620119 5.766483 -4.721036 0
M  V30 50 H 12.175963 5.826352 -5.474241 0
M  V30 END ATOM
M  V30 BEGIN BOND
M  V30 1 2 3 1
M  V30 2 2 7 2
M  V30 3 2 10 2
M  V30 4 1 11 2
M  V30 5 1 13 9
M  V30 6 2 14 5
M  V30 7 2 15 4
M  V30 8 1 16 2
M  V30 9 1 17 11
M  V30 10 1 17 14
M  V30 11 1 18 9
M  V30 12 2 19 1
M  V30 13 1 19 13
M  V30 14 1 20 6
M  V30 15 2 20 17
M  V30 16 1 21 11
M  V30 17 1 21 12
M  V30 18 1 23 5
M  V30 19 2 23 6
M  V30 20 1 23 18
M  V30 21 1 24 4
M  V30 22 2 24 22
M  V30 23 1 25 24
M  V30 24 1 26 12
M  V30 25 1 26 16
M  V30 26 1 26 25
M  V30 27 1 27 8
M  V30 28 1 27 13
M  V30 29 1 28 5
M  V30 30 1 29 6
M  V30 31 1 30 8
M  V30 32 1 31 8
M  V30 33 1 32 8
M  V30 34 1 33 12
M  V30 35 1 34 12
M  V30 36 1 13 35 CFG=1
M  V30 37 1 36 14
M  V30 38 1 37 15
M  V30 39 1 38 15
M  V30 40 1 39 16
M  V30 41 1 40 18
M  V30 42 1 41 18
M  V30 43 1 42 19
M  V30 44 1 43 20
M  V30 45 1 44 21
M  V30 46 1 45 21
M  V30 47 1 46 25
M  V30 48 1 47 25
M  V30 49 1 26 48 CFG=3
M  V30 50 1 49 27
M  V30 51 1 50 27
M  V30 END BOND
M  V30 END CTAB
M  END
>  <i_epik_Tot_Q>  (1) 
0

>  <i_epik_Tot_abs_Q>  (1) 
0

>  <i_i_glide_confnum>  (1) 
94

>  <i_i_glide_lignum>  (1) 
77

>  <i_i_glide_posenum>  (1) 
151

>  <i_i_glide_rotatable_bonds>  (1) 
9

>  <i_lp_mmshare_version>  (1) 
72125

>  <i_m_source_file_index>  (1) 
49

>  <i_f3d_flags>  (1) 
0

>  <num_sample>  (1) 
100

>  <b_lp_Chiralities_Consistent>  (1) 
1

>  <r_epik_Charging_Adjusted_Penalty>  (1) 
0.28919108410989852

>  <r_epik_Ionization_Penalty>  (1) 
0.28919108415051159

>  <r_epik_Ionization_Penalty_Charging>  (1) 
0

>  <r_epik_Ionization_Penalty_Neutral>  (1) 
0.28919108415051159

>  <r_epik_State_Penalty>  (1) 
0.28919108410989852

>  <r_glide_ring_energy>  (1) 
0

>  <r_i_docking_score>  (1) 
-4.4617217517028269

>  <r_i_glide_ecoul>  (1) 
0.16391579265149159

>  <r_i_glide_eff_state_penalty>  (1) 
0.28919108410989852

>  <r_i_glide_einternal>  (1) 
13.301862323003618

>  <r_i_glide_emodel>  (1) 
-42.199203347832764

>  <r_i_glide_emodel_strain>  (1) 
2.1857060373145529

>  <r_i_glide_energy>  (1) 
-40.666334757713308

>  <r_i_glide_erotb>  (1) 
1.0094699416249397

>  <r_i_glide_esite>  (1) 
-0.022702865326583929

>  <r_i_glide_evdw>  (1) 
-40.830250550364802

>  <r_i_glide_gscore>  (1) 
-4.7509128358127253

>  <r_i_glide_gscore_strain>  (1) 
0

>  <r_i_glide_hbond>  (1) 
0

>  <r_i_glide_ligand_efficiency>  (1) 
-0.16524895376677137

>  <r_i_glide_ligand_efficiency_ln>  (1) 
-1.0386152665645312

>  <r_i_glide_ligand_efficiency_sa>  (1) 
-0.4957468613003142

>  <r_i_glide_lipo>  (1) 
-1.7004374535071571

>  <r_i_glide_metal>  (1) 
-0

>  <r_i_glide_rewards>  (1) 
-2.0203172999834083

>  <r_lp_Energy>  (1) 
31.284617999999998

>  <s_epik_Chemistry_Notes>  (1) 
This compound has an imine and may undergo hydrolysis.

>  <s_epik_cmdline>  (1) 
J2VwaWtfcHl0aG9uJywgJy1waHQnLCAnMS4wJywgJy1waCcsICc3LjQnLCAnLXRuJywgJzgnLCAnLW1hJywgJzUwMCcsICctaW1hZScsICc8aW5maWxlLm1hZT4nLCAnLW9tYWUnLCAnPG91dGZpbGUubWFlPic=

>  <s_epik_input>  (1) 
Tz1DPVtDSF1bQ0BIXShbQ0gyXVtDSDNdKU9bQ0gyXWMoW2NIXVtjSF0xKVtjSF1bY0hdYzFOKFMyKD1PKT1PKVtDSDJdW0NIMl1bQ0BASF0oW05IXTIpW0NIMl1DKD1PKU49W0NIMl0=

>  <s_glide_docking_method>  (1) 
confgen

>  <s_i_glide_gridfile>  (1) 
gpcr_drd2_6luq_protein_autoprepared_prepared

>  <s_lp_Force_Field>  (1) 
S-OPLS

>  <s_lp_Variant>  (1) 
DiffSBDD_48-1

>  <s_m_source_file>  (1) 
generated_generic_title2_ligand_DiffSBDD_2026-06-23_prepared.sdf

>  <GenAI_Model>  (1) 
DiffSBDD

>  <Protein>  (1) 
generic_title2

$$$$
DiffSBDD_83
     RDKit          3D

  0  0  0  0  0  0  0  0  0  0999 V3000
M  V30 BEGIN CTAB
M  V30 COUNTS 46 48 0 0 1
M  V30 BEGIN ATOM
M  V30 1 C 11.093222 7.766235 -6.599956 0
M  V30 2 C 7.775807 3.097014 -17.058356 0
M  V30 3 C 8.046613 5.029844 -15.594561 0
M  V30 4 C 7.969992 3.929567 -12.048593 0
M  V30 5 F 7.512278 0.922660 -16.096791 0
M  V30 6 C 7.955288 4.482804 -16.889117 0
M  V30 7 C 7.775368 2.798134 -14.636088 0
M  V30 8 C 10.937868 7.495639 -8.902758 0 CFG=1
M  V30 9 C 7.685562 2.255295 -15.932890 0
M  V30 10 N 11.781731 8.680922 -7.129318 0 CHG=1
M  V30 11 N 8.975411 7.068896 -10.535035 0 CFG=1 CHG=1
M  V30 12 C 10.475844 6.810497 -7.527078 0 CFG=2
M  V30 13 C 7.958571 4.194884 -14.462970 0
M  V30 14 C 8.975410 6.746200 -7.214627 0
M  V30 15 C 9.802273 8.011855 -11.274496 0
M  V30 16 O 8.054133 4.754096 -13.203733 0
M  V30 17 C 7.967318 4.842227 -10.819232 0
M  V30 18 F 7.688633 2.573769 -18.303700 0
M  V30 19 C 13.375315 8.455038 -8.970888 0
M  V30 20 C 9.282228 5.623151 -10.632699 0
M  V30 21 C 9.786202 8.011029 -9.764943 0 CFG=2
M  V30 22 C 11.918434 8.689842 -8.555833 0 CFG=1
M  V30 23 H 10.986814 7.722994 -5.521076 0
M  V30 24 H 8.184982 6.092040 -15.468575 0
M  V30 25 H 8.805015 3.227989 -12.001432 0
M  V30 26 H 7.037140 3.363448 -12.059931 0
M  V30 27 H 8.023387 5.127607 -17.753308 0
M  V30 28 H 7.706034 2.143222 -13.781798 0
M  V30 29 H 11.505039 6.790215 -9.501097 0
M  V30 30 H 8.790654 6.279098 -6.245820 0
M  V30 31 H 8.555474 7.749950 -7.177525 0
M  V30 32 H 8.420676 6.169211 -7.952918 0
M  V30 33 H 9.154880 8.683323 -11.837667 0
M  V30 34 H 10.613782 7.523733 -11.811247 0
M  V30 35 H 7.770702 4.255063 -9.923176 0
M  V30 36 H 7.114792 5.519293 -10.898176 0
M  V30 37 H 13.496916 8.487495 -10.053526 0
M  V30 38 H 14.035596 9.190225 -8.523071 0
M  V30 39 H 13.761679 7.516049 -8.609883 0
M  V30 40 H 9.963125 5.430251 -11.463285 0
M  V30 41 H 9.775279 5.253492 -9.735929 0
M  V30 42 H 9.144673 8.755736 -9.296257 0
M  V30 43 H 11.548472 9.650669 -8.912304 0
M  V30 44 H 8.007338 7.323162 -10.282135 0
M  V30 45 H 10.942668 5.832270 -7.401309 0
M  V30 46 H 12.244734 9.393229 -6.570934 0
M  V30 END ATOM
M  V30 BEGIN BOND
M  V30 1 1 6 2
M  V30 2 2 6 3
M  V30 3 2 9 2
M  V30 4 1 9 5
M  V30 5 1 9 7
M  V30 6 2 10 1
M  V30 7 1 12 1
M  V30 8 1 12 8
M  V30 9 1 13 3
M  V30 10 2 13 7
M  V30 11 1 14 12
M  V30 12 1 15 11
M  V30 13 1 16 4
M  V30 14 1 16 13
M  V30 15 1 17 4
M  V30 16 1 18 2
M  V30 17 1 20 11
M  V30 18 1 20 17
M  V30 19 1 21 8
M  V30 20 1 21 11
M  V30 21 1 21 15
M  V30 22 1 22 8
M  V30 23 1 22 10
M  V30 24 1 22 19
M  V30 25 1 23 1
M  V30 26 1 24 3
M  V30 27 1 25 4
M  V30 28 1 26 4
M  V30 29 1 27 6
M  V30 30 1 28 7
M  V30 31 1 8 29 CFG=3
M  V30 32 1 30 14
M  V30 33 1 31 14
M  V30 34 1 32 14
M  V30 35 1 33 15
M  V30 36 1 34 15
M  V30 37 1 35 17
M  V30 38 1 36 17
M  V30 39 1 37 19
M  V30 40 1 38 19
M  V30 41 1 39 19
M  V30 42 1 40 20
M  V30 43 1 41 20
M  V30 44 1 21 42 CFG=1
M  V30 45 1 22 43 CFG=3
M  V30 46 1 11 44 CFG=3
M  V30 47 1 12 45 CFG=1
M  V30 48 1 46 10
M  V30 END BOND
M  V30 END CTAB
M  END
>  <i_epik_Tot_Q>  (1) 
2

>  <i_epik_Tot_abs_Q>  (1) 
2

>  <i_i_glide_confnum>  (1) 
34

>  <i_i_glide_lignum>  (1) 
149

>  <i_i_glide_posenum>  (1) 
261

>  <i_i_glide_rotatable_bonds>  (1) 
6

>  <i_lp_mmshare_version>  (1) 
72125

>  <i_m_source_file_index>  (1) 
84

>  <i_f3d_flags>  (1) 
0

>  <num_sample>  (1) 
100

>  <b_lp_Chiralities_Consistent>  (1) 
1

>  <r_epik_Charging_Adjusted_Penalty>  (1) 
1.5610925274032894

>  <r_epik_Ionization_Penalty>  (1) 
5.6947270193771686

>  <r_epik_Ionization_Penalty_Charging>  (1) 
0.86989266313289404

>  <r_epik_Ionization_Penalty_Neutral>  (1) 
4.824834356244275

>  <r_epik_State_Penalty>  (1) 
0.69119986427039537

>  <r_glide_ring_energy>  (1) 
0

>  <r_i_docking_score>  (1) 
-4.4534880744851488

>  <r_i_glide_ecoul>  (1) 
-8.39500097314043

>  <r_i_glide_eff_state_penalty>  (1) 
0.69119986427039537

>  <r_i_glide_einternal>  (1) 
7.3725200458616165

>  <r_i_glide_emodel>  (1) 
-44.048953226402745

>  <r_i_glide_emodel_strain>  (1) 
0.20781210014992979

>  <r_i_glide_energy>  (1) 
-31.309510867550497

>  <r_i_glide_erotb>  (1) 
0.96167990521069524

>  <r_i_glide_esite>  (1) 
-0.10000000000000001

>  <r_i_glide_evdw>  (1) 
-22.914509894410067

>  <r_i_glide_gscore>  (1) 
-5.1446879387555438

>  <r_i_glide_gscore_strain>  (1) 
0

>  <r_i_glide_hbond>  (1) 
-0.17435847146111788

>  <r_i_glide_ligand_efficiency>  (1) 
-0.2024312761129613

>  <r_i_glide_ligand_efficiency_ln>  (1) 
-1.0885949303286508

>  <r_i_glide_ligand_efficiency_sa>  (1) 
-0.56722039742327801

>  <r_i_glide_lipo>  (1) 
-1.1270099028895213

>  <r_i_glide_metal>  (1) 
-0

>  <r_i_glide_rewards>  (1) 
-2.3000238289240316

>  <r_lp_Energy>  (1) 
41.591741999999996

>  <r_lp_tautomer_probability>  (1) 
1

>  <s_epik_Chemistry_Notes>  (1) 
This compound has an imine and may undergo hydrolysis.

>  <s_epik_cmdline>  (1) 
J2VwaWtfcHl0aG9uJywgJy1waHQnLCAnMS4wJywgJy1waCcsICc3LjQnLCAnLXRuJywgJzgnLCAnLW1hJywgJzUwMCcsICctaW1hZScsICc8aW5maWxlLm1hZT4nLCAnLW9tYWUnLCAnPG91dGZpbGUubWFlPic=

>  <s_epik_input>  (1) 
W0NIM11bQ0BASF0xTj1bQ0hdW0NAQEhdKFtDSDNdKVtDQEhdMVtDQEhdMltDSDJdTjJbQ0gyXVtDSDJdW0NIMl1PYyhbY0hdYzNGKVtjSF1bY0hdYzNG

>  <s_glide_docking_method>  (1) 
confgen

>  <s_i_glide_gridfile>  (1) 
gpcr_drd2_6luq_protein_autoprepared_prepared

>  <s_lp_Force_Field>  (1) 
S-OPLS

>  <s_lp_Variant>  (1) 
DiffSBDD_83-3

>  <s_m_source_file>  (1) 
generated_generic_title2_ligand_DiffSBDD_2026-06-23_prepared.sdf

>  <GenAI_Model>  (1) 
DiffSBDD

>  <Protein>  (1) 
generic_title2

$$$$
DiffSBDD_26
     RDKit          3D

  0  0  0  0  0  0  0  0  0  0999 V3000
M  V30 BEGIN CTAB
M  V30 COUNTS 56 58 0 0 1
M  V30 BEGIN ATOM
M  V30 1 C 5.916039 4.839479 -14.506151 0
M  V30 2 O 11.896362 7.590285 -10.784918 0
M  V30 3 C 8.565778 5.150181 -17.444674 0 CFG=1
M  V30 4 C 9.253826 5.211846 -9.447427 0
M  V30 5 C 7.289210 4.393957 -19.571810 0
M  V30 6 C 8.187051 5.297791 -14.063554 0
M  V30 7 C 8.040772 5.173792 -11.479287 0 CFG=2
M  V30 8 C 7.773212 4.966645 -9.122532 0
M  V30 9 C 5.541759 4.161748 -12.106380 0
M  V30 10 N 7.052766 5.191602 -10.390131 0 CFG=2 CHG=1
M  V30 11 N 9.032968 7.342315 -10.785139 0
M  V30 12 C 9.947804 5.189378 -16.775865 0
M  V30 13 C 9.795721 8.125133 -9.798500 0
M  V30 14 C 5.768951 4.492818 -10.625238 0
M  V30 15 C 8.647105 4.465780 -18.847741 0
M  V30 16 C 5.992834 5.285982 -13.043781 0 CFG=1
M  V30 17 C 7.171500 5.342291 -15.205264 0 CFG=1
M  V30 18 C 9.254165 5.885107 -10.840601 0 CFG=1
M  V30 19 O 10.680252 4.201574 -16.785036 0
M  V30 20 C 7.513600 4.525976 -16.482653 0
M  V30 21 O 11.844381 7.991919 -8.596917 0 CHG=-1
M  V30 22 C 7.443855 5.730736 -12.797655 0 CFG=2
M  V30 23 C 9.665464 5.161434 -19.780753 0
M  V30 24 C 11.309448 7.881343 -9.722043 0
M  V30 25 H 5.010133 5.199131 -14.981925 0
M  V30 26 H 5.908395 3.752490 -14.557647 0
M  V30 27 H 8.267834 6.182828 -17.617914 0
M  V30 28 H 9.765545 4.252515 -9.527481 0
M  V30 29 H 9.771181 5.754392 -8.658668 0
M  V30 30 H 6.809543 5.371485 -19.619758 0
M  V30 31 H 6.603355 3.700580 -19.085983 0
M  V30 32 H 7.410159 4.038160 -20.596068 0
M  V30 33 H 8.609712 4.298245 -13.955343 0
M  V30 34 H 8.979394 5.990150 -14.258406 0
M  V30 35 H 8.309301 4.125758 -11.638457 0
M  V30 36 H 7.590805 3.990780 -8.692547 0
M  V30 37 H 7.416633 5.676250 -8.386108 0
M  V30 38 H 4.486143 3.989706 -12.299144 0
M  V30 39 H 6.070091 3.236067 -12.342147 0
M  V30 40 H 8.071430 7.552446 -10.486630 0
M  V30 41 H 10.217419 6.133844 -16.309294 0
M  V30 42 H 9.621606 9.184792 -9.981833 0
M  V30 43 H 9.375736 7.935900 -8.809871 0
M  V30 44 H 5.703603 3.587947 -10.022003 0
M  V30 45 H 4.972188 5.161739 -10.299531 0
M  V30 46 H 8.983416 3.436074 -18.711237 0
M  V30 47 H 5.344637 6.151881 -12.899290 0
M  V30 48 H 7.003488 6.385128 -15.478448 0
M  V30 49 H 10.171765 5.679205 -11.393041 0
M  V30 50 H 6.575410 4.436528 -17.025384 0
M  V30 51 H 7.788029 3.502404 -16.221560 0
M  V30 52 H 7.431680 6.821286 -12.768700 0
M  V30 53 H 9.421097 6.216117 -19.919840 0
M  V30 54 H 9.683709 4.691952 -20.765162 0
M  V30 55 H 10.685420 5.105654 -19.398696 0
M  V30 56 H 6.805533 6.174884 -10.307731 0
M  V30 END ATOM
M  V30 BEGIN BOND
M  V30 1 1 8 4
M  V30 2 1 10 7
M  V30 3 1 10 8
M  V30 4 1 12 3
M  V30 5 1 13 11
M  V30 6 1 14 9
M  V30 7 1 14 10
M  V30 8 1 15 3
M  V30 9 1 15 5
M  V30 10 1 16 1
M  V30 11 1 16 9
M  V30 12 1 17 1
M  V30 13 1 17 6
M  V30 14 1 18 4
M  V30 15 1 18 7
M  V30 16 1 18 11
M  V30 17 2 19 12
M  V30 18 1 20 3
M  V30 19 1 20 17
M  V30 20 1 22 6
M  V30 21 1 22 7
M  V30 22 1 22 16
M  V30 23 1 23 15
M  V30 24 2 24 2
M  V30 25 1 24 13
M  V30 26 1 24 21
M  V30 27 1 25 1
M  V30 28 1 26 1
M  V30 29 1 3 27 CFG=3
M  V30 30 1 28 4
M  V30 31 1 29 4
M  V30 32 1 30 5
M  V30 33 1 31 5
M  V30 34 1 32 5
M  V30 35 1 33 6
M  V30 36 1 34 6
M  V30 37 1 7 35 CFG=3
M  V30 38 1 36 8
M  V30 39 1 37 8
M  V30 40 1 38 9
M  V30 41 1 39 9
M  V30 42 1 40 11
M  V30 43 1 41 12
M  V30 44 1 42 13
M  V30 45 1 43 13
M  V30 46 1 44 14
M  V30 47 1 45 14
M  V30 48 1 46 15
M  V30 49 1 16 47 CFG=3
M  V30 50 1 17 48 CFG=3
M  V30 51 1 18 49 CFG=3
M  V30 52 1 50 20
M  V30 53 1 51 20
M  V30 54 1 22 52 CFG=1
M  V30 55 1 53 23
M  V30 56 1 54 23
M  V30 57 1 55 23
M  V30 58 1 10 56 CFG=1
M  V30 END BOND
M  V30 END CTAB
M  END
>  <i_epik_Tot_Q>  (1) 
0

>  <i_epik_Tot_abs_Q>  (1) 
2

>  <i_i_glide_confnum>  (1) 
69

>  <i_i_glide_lignum>  (1) 
46

>  <i_i_glide_posenum>  (1) 
261

>  <i_i_glide_rotatable_bonds>  (1) 
7

>  <i_lp_mmshare_version>  (1) 
72125

>  <i_m_source_file_index>  (1) 
27

>  <i_f3d_flags>  (1) 
0

>  <num_sample>  (1) 
100

>  <b_lp_Chiralities_Consistent>  (1) 
1

>  <r_epik_Charging_Adjusted_Penalty>  (1) 
0.19178745009715187

>  <r_epik_Ionization_Penalty>  (1) 
0.029917907437945299

>  <r_epik_Ionization_Penalty_Charging>  (1) 
0.0050195782491265998

>  <r_epik_Ionization_Penalty_Neutral>  (1) 
0.024898329188818697

>  <r_epik_State_Penalty>  (1) 
0.18676787184802526

>  <r_glide_ring_energy>  (1) 
0

>  <r_i_docking_score>  (1) 
-4.4512252917611903

>  <r_i_glide_ecoul>  (1) 
-9.6346584907567063

>  <r_i_glide_eff_state_penalty>  (1) 
0.18676787184802526

>  <r_i_glide_einternal>  (1) 
8.1888517404504686

>  <r_i_glide_emodel>  (1) 
-28.594738964561603

>  <r_i_glide_emodel_strain>  (1) 
1.754310346748909

>  <r_i_glide_energy>  (1) 
-25.829770080239946

>  <r_i_glide_erotb>  (1) 
0.66727664270853937

>  <r_i_glide_esite>  (1) 
-0.10000000000000001

>  <r_i_glide_evdw>  (1) 
-16.19511158948324

>  <r_i_glide_gscore>  (1) 
-4.6379931636092158

>  <r_i_glide_gscore_strain>  (1) 
0

>  <r_i_glide_hbond>  (1) 
-0.35999999999999999

>  <r_i_glide_ligand_efficiency>  (1) 
-0.18546772049004959

>  <r_i_glide_ligand_efficiency_ln>  (1) 
-1.0653824657377609

>  <r_i_glide_ligand_efficiency_sa>  (1) 
-0.5349814803653371

>  <r_i_glide_lipo>  (1) 
-0.70305354029411338

>  <r_i_glide_metal>  (1) 
-0

>  <r_i_glide_rewards>  (1) 
-1.8872619129359736

>  <r_lp_Energy>  (1) 
40.618023999999998

>  <r_lp_tautomer_probability>  (1) 
0.99990000499974985

>  <s_epik_cmdline>  (1) 
J2VwaWtfcHl0aG9uJywgJy1waHQnLCAnMS4wJywgJy1waCcsICc3LjQnLCAnLXRuJywgJzgnLCAnLW1hJywgJzUwMCcsICctaW1hZScsICc8aW5maWxlLm1hZT4nLCAnLW9tYWUnLCAnPG91dGZpbGUubWFlPic=

>  <s_epik_input>  (1) 
W0NIM11bQ0hdKFtDSDNdKVtDQEhdKFtDSF09TylbQ0gyXVtDQEBIXShbQ0gyXTEpW0NIMl1bQ0BIXTJbQ0BASF0xW0NIMl1bQ0gyXU4oW0NAQEhdMjMpW0NIMl1bQ0gyXVtDQEBIXTNbTkhdW0NIMl1DKD1PKVtPSF0=

>  <s_glide_docking_method>  (1) 
confgen

>  <s_i_glide_gridfile>  (1) 
gpcr_drd2_6luq_protein_autoprepared_prepared

>  <s_lp_Force_Field>  (1) 
S-OPLS

>  <s_lp_Variant>  (1) 
DiffSBDD_26-2

>  <s_m_source_file>  (1) 
generated_generic_title2_ligand_DiffSBDD_2026-06-23_prepared.sdf

>  <GenAI_Model>  (1) 
DiffSBDD

>  <Protein>  (1) 
generic_title2

$$$$
DiffSBDD_23
     RDKit          3D

  0  0  0  0  0  0  0  0  0  0999 V3000
M  V30 BEGIN CTAB
M  V30 COUNTS 69 71 0 0 1
M  V30 BEGIN ATOM
M  V30 1 O 12.364668 4.839224 -18.543039 0
M  V30 2 C 14.962577 8.623311 -18.654575 0 CFG=2
M  V30 3 C 10.797626 8.413988 -9.229610 0
M  V30 4 C 7.545187 6.715602 -12.107653 0 CFG=1
M  V30 5 C 8.927789 6.083004 -12.368791 0 CFG=1
M  V30 6 C 6.087493 6.274897 -15.726152 0
M  V30 7 F 16.130444 8.462089 -17.985010 0
M  V30 8 C 9.436707 5.988293 -8.785857 0
M  V30 9 C 12.282295 2.497497 -17.673505 0
M  V30 10 C 10.458384 7.590221 -10.321029 0
M  V30 11 C 14.328386 6.221224 -18.087126 0
M  V30 12 C 6.042938 4.545489 -13.928782 0
M  V30 13 O 9.453062 5.537881 -11.156603 0
M  V30 14 F 13.614521 8.048768 -16.812493 0
M  V30 15 O 14.575415 9.977071 -18.613508 0
M  V30 16 F 10.452260 6.213041 -16.764929 0
M  V30 17 C 6.788186 6.948503 -13.426174 0 CFG=2
M  V30 18 C 13.875657 7.692538 -18.071648 0 CFG=1
M  V30 19 C 9.248212 2.865189 -17.263180 0
M  V30 20 N 8.258447 5.481254 -14.695224 0
M  V30 21 F 10.971481 4.470422 -15.585028 0
M  V30 22 C 10.455162 8.027525 -7.919221 0
M  V30 23 C 8.636561 4.869731 -15.993479 0 CFG=2
M  V30 24 C 11.529969 3.692377 -18.304198 0 CFG=1
M  V30 25 C 10.142195 4.054935 -17.685848 0 CFG=2
M  V30 26 C 6.820738 5.780522 -14.450785 0
M  V30 27 C 9.775404 6.815353 -7.697725 0
M  V30 28 C 9.775175 6.371941 -10.101380 0
M  V30 29 O 8.780190 4.814236 -8.569309 0
M  V30 30 F 7.375415 7.990218 -14.007550 0
M  V30 31 C 8.253351 3.400709 -16.215922 0
M  V30 32 O 6.753189 5.990234 -11.185040 0
M  V30 33 C 8.929543 4.995615 -13.472830 0
M  V30 34 C 10.109801 4.965776 -16.456007 0
M  V30 35 C 13.313052 5.208300 -17.536607 0
M  V30 36 H 15.129119 8.364280 -19.699511 0
M  V30 37 H 11.322521 9.343304 -9.398492 0
M  V30 38 H 7.700512 7.684818 -11.630668 0
M  V30 39 H 9.584269 6.863497 -12.750300 0
M  V30 40 H 5.081532 6.619625 -15.487324 0
M  V30 41 H 6.598978 7.109975 -16.204749 0
M  V30 42 H 5.969740 5.488238 -16.469725 0
M  V30 43 H 11.714402 1.571160 -17.749472 0
M  V30 44 H 13.222682 2.318639 -18.194839 0
M  V30 45 H 12.511387 2.662827 -16.621984 0
M  V30 46 H 10.729241 7.889274 -11.318892 0
M  V30 47 H 15.233680 6.143994 -17.483209 0
M  V30 48 H 14.618653 5.928135 -19.096341 0
M  V30 49 H 4.979330 4.767129 -13.836688 0
M  V30 50 H 6.142964 3.694039 -14.596297 0
M  V30 51 H 6.365492 4.207112 -12.946772 0
M  V30 52 H 13.684995 10.028092 -18.275109 0
M  V30 53 H 5.763417 7.260062 -13.218598 0
M  V30 54 H 12.941653 7.804413 -18.624147 0
M  V30 55 H 9.823427 2.074800 -16.785491 0
M  V30 56 H 8.742177 2.421627 -18.120982 0
M  V30 57 H 10.714477 8.661133 -7.083987 0
M  V30 58 H 8.124832 5.435983 -16.768298 0
M  V30 59 H 11.290919 3.353431 -19.312904 0
M  V30 60 H 9.598875 4.593318 -18.465082 0
M  V30 61 H 9.511936 6.519035 -6.692609 0
M  V30 62 H 8.464782 4.460858 -9.388859 0
M  V30 63 H 8.329364 2.824808 -15.293804 0
M  V30 64 H 7.228432 3.312151 -16.574772 0
M  V30 65 H 6.700256 6.551481 -10.404827 0
M  V30 66 H 9.969823 4.759416 -13.660863 0
M  V30 67 H 8.486636 4.067526 -13.116324 0
M  V30 68 H 12.831970 5.595073 -16.641074 0
M  V30 69 H 13.901045 4.348199 -17.223553 0
M  V30 END ATOM
M  V30 BEGIN BOND
M  V30 1 1 5 4
M  V30 2 1 7 2
M  V30 3 1 10 3
M  V30 4 1 13 5
M  V30 5 1 15 2
M  V30 6 1 17 4
M  V30 7 1 18 2
M  V30 8 1 18 11
M  V30 9 1 18 14
M  V30 10 2 22 3
M  V30 11 1 23 20
M  V30 12 1 24 1
M  V30 13 1 24 9
M  V30 14 1 25 19
M  V30 15 1 25 24
M  V30 16 1 26 6
M  V30 17 1 26 12
M  V30 18 1 26 17
M  V30 19 1 26 20
M  V30 20 2 27 8
M  V30 21 1 27 22
M  V30 22 1 28 8
M  V30 23 2 28 10
M  V30 24 1 28 13
M  V30 25 1 29 8
M  V30 26 1 30 17
M  V30 27 1 31 19
M  V30 28 1 31 23
M  V30 29 1 32 4
M  V30 30 1 33 5
M  V30 31 1 33 20
M  V30 32 1 34 16
M  V30 33 1 34 21
M  V30 34 1 34 23
M  V30 35 1 34 25
M  V30 36 1 35 1
M  V30 37 1 35 11
M  V30 38 1 2 36 CFG=3
M  V30 39 1 37 3
M  V30 40 1 4 38 CFG=1
M  V30 41 1 5 39 CFG=3
M  V30 42 1 40 6
M  V30 43 1 41 6
M  V30 44 1 42 6
M  V30 45 1 43 9
M  V30 46 1 44 9
M  V30 47 1 45 9
M  V30 48 1 46 10
M  V30 49 1 47 11
M  V30 50 1 48 11
M  V30 51 1 49 12
M  V30 52 1 50 12
M  V30 53 1 51 12
M  V30 54 1 52 15
M  V30 55 1 17 53 CFG=1
M  V30 56 1 18 54 CFG=3
M  V30 57 1 55 19
M  V30 58 1 56 19
M  V30 59 1 57 22
M  V30 60 1 23 58 CFG=3
M  V30 61 1 24 59 CFG=3
M  V30 62 1 25 60 CFG=3
M  V30 63 1 61 27
M  V30 64 1 62 29
M  V30 65 1 63 31
M  V30 66 1 64 31
M  V30 67 1 65 32
M  V30 68 1 66 33
M  V30 69 1 67 33
M  V30 70 1 68 35
M  V30 71 1 69 35
M  V30 END BOND
M  V30 END CTAB
M  END
>  <i_epik_Tot_Q>  (1) 
0

>  <i_epik_Tot_abs_Q>  (1) 
0

>  <i_i_glide_confnum>  (1) 
854

>  <i_i_glide_lignum>  (1) 
41

>  <i_i_glide_posenum>  (1) 
385

>  <i_i_glide_rotatable_bonds>  (1) 
12

>  <i_lp_mmshare_version>  (1) 
72125

>  <i_m_source_file_index>  (1) 
24

>  <i_f3d_flags>  (1) 
0

>  <num_sample>  (1) 
100

>  <b_lp_Chiralities_Consistent>  (1) 
1

>  <r_epik_Charging_Adjusted_Penalty>  (1) 
0.0080743036446832648

>  <r_epik_Ionization_Penalty>  (1) 
0.010611315271180252

>  <r_epik_Ionization_Penalty_Charging>  (1) 
0

>  <r_epik_Ionization_Penalty_Neutral>  (1) 
0.010611315271180252

>  <r_epik_State_Penalty>  (1) 
0.0080743036446832648

>  <r_glide_ring_energy>  (1) 
0

>  <r_i_docking_score>  (1) 
-4.4477746458554535

>  <r_i_glide_ecoul>  (1) 
-7.9004610574947911

>  <r_i_glide_eff_state_penalty>  (1) 
0.0080743036446832648

>  <r_i_glide_einternal>  (1) 
5.1050058953338109

>  <r_i_glide_emodel>  (1) 
-40.846855706785774

>  <r_i_glide_emodel_strain>  (1) 
3.4003381087191258

>  <r_i_glide_energy>  (1) 
-38.159536181424173

>  <r_i_glide_erotb>  (1) 
0.70487652011910051

>  <r_i_glide_esite>  (1) 
-0.0070717133713249425

>  <r_i_glide_evdw>  (1) 
-30.259075123929378

>  <r_i_glide_gscore>  (1) 
-4.4558489495001368

>  <r_i_glide_gscore_strain>  (1) 
0

>  <r_i_glide_hbond>  (1) 
-0.45599999999999996

>  <r_i_glide_ligand_efficiency>  (1) 
-0.12707927559587009

>  <r_i_glide_ligand_efficiency_ln>  (1) 
-0.97638524780501901

>  <r_i_glide_ligand_efficiency_sa>  (1) 
-0.41568473712482179

>  <r_i_glide_lipo>  (1) 
-1.3631709606796336

>  <r_i_glide_metal>  (1) 
-0

>  <r_i_glide_rewards>  (1) 
-0.63645988074759019

>  <r_lp_Energy>  (1) 
44.015346999999998

>  <r_lp_tautomer_probability>  (1) 
1

>  <s_epik_cmdline>  (1) 
J2VwaWtfcHl0aG9uJywgJy1waHQnLCAnMS4wJywgJy1waCcsICc3LjQnLCAnLXRuJywgJzgnLCAnLW1hJywgJzUwMCcsICctaW1hZScsICc8aW5maWxlLm1hZT4nLCAnLW9tYWUnLCAnPG91dGZpbGUubWFlPic=

>  <s_epik_input>  (1) 
RltDQEhdKFtPSF0pW0NASF0oRilbQ0gyXVtDSDJdT1tDQEBIXShbQ0gzXSlbQ0BIXTFbQ0gyXVtDSDJdW0NASF0oQzEoRilGKU4yW0NIMl1bQ0BASF0oW0NASF0oW09IXSlbQ0BASF0oRilDMihbQ0gzXSlbQ0gzXSlPW0NAQEhdM1tDSF09W0NIXVtDSF09W0NIXUMzPU8=

>  <s_glide_docking_method>  (1) 
confgen

>  <s_i_glide_gridfile>  (1) 
gpcr_drd2_6luq_protein_autoprepared_prepared

>  <s_lp_Force_Field>  (1) 
S-OPLS

>  <s_lp_Variant>  (1) 
DiffSBDD_23-1

>  <s_m_source_file>  (1) 
generated_generic_title2_ligand_DiffSBDD_2026-06-23_prepared.sdf

>  <GenAI_Model>  (1) 
DiffSBDD

>  <Protein>  (1) 
generic_title2

$$$$
DiffSBDD_25
     RDKit          3D

  0  0  0  0  0  0  0  0  0  0999 V3000
M  V30 BEGIN CTAB
M  V30 COUNTS 64 67 0 0 1
M  V30 BEGIN ATOM
M  V30 1 C 5.413495 -2.492305 -18.337880 0
M  V30 2 C 9.060013 7.755641 -11.985944 0
M  V30 3 C 6.953522 2.625128 -14.526727 0
M  V30 4 C 6.387625 5.044153 -14.614414 0
M  V30 5 N 7.146299 3.935135 -15.211944 0
M  V30 6 C 9.260212 5.336991 -9.028100 0
M  V30 7 C 9.100964 5.190228 -15.777866 0
M  V30 8 C 8.889055 5.905619 -10.265201 0
M  V30 9 C 6.651272 1.230611 -15.190369 0 CFG=1
M  V30 10 C 7.145900 -0.836587 -17.685343 0
M  V30 11 C 8.562943 3.296437 -17.148926 0
M  V30 12 O 7.375411 7.687957 -13.675352 0
M  V30 13 C 7.867994 1.497283 -18.732800 0 CFG=1
M  V30 14 C 6.515458 0.234658 -12.800981 0
M  V30 15 C 7.872781 5.255064 -11.102125 0
M  V30 16 C 9.466284 7.125747 -10.671549 0
M  V30 17 C 7.900461 0.423884 -15.691866 0
M  V30 18 C 7.377093 5.792360 -12.239053 0
M  V30 19 C 6.914747 -2.165009 -18.338541 0
M  V30 20 O 7.752097 0.390229 -12.756465 0
M  V30 21 C 7.621975 2.541734 -17.725526 0
M  V30 22 C 6.813953 0.448056 -18.398186 0 CFG=1
M  V30 23 C 10.193080 5.990221 -8.200856 0
M  V30 24 C 7.872801 7.106314 -12.715472 0
M  V30 25 C 8.262983 4.176451 -16.040457 0
M  V30 26 C 5.844483 0.364196 -14.176088 0
M  V30 27 C 7.015178 0.877698 -19.822731 0
M  V30 28 C 10.772245 7.203786 -8.612505 0
M  V30 29 C 10.412371 7.770252 -9.847909 0
M  V30 30 C 6.263381 5.149109 -13.058215 0
M  V30 31 N 7.609609 -0.809773 -16.463697 0 CHG=1
M  V30 32 O 5.775417 -0.009771 -11.827152 0 CHG=-1
M  V30 33 H 5.231077 -3.463350 -18.798720 0
M  V30 34 H 4.836641 -1.752406 -18.894818 0
M  V30 35 H 5.012849 -2.535226 -17.323196 0
M  V30 36 H 8.810323 8.799709 -11.800433 0
M  V30 37 H 9.920976 7.745465 -12.652855 0
M  V30 38 H 7.803205 2.532094 -13.850749 0
M  V30 39 H 6.085903 2.756476 -13.891819 0
M  V30 40 H 5.375415 4.905812 -14.980345 0
M  V30 41 H 6.677811 5.980797 -15.081536 0
M  V30 42 H 8.814271 4.408022 -8.705674 0
M  V30 43 H 9.971311 5.367264 -16.392881 0
M  V30 44 H 8.931821 5.852526 -14.947052 0
M  V30 45 H 5.939064 1.368975 -15.991815 0
M  V30 46 H 9.584823 3.214203 -17.490776 0
M  V30 47 H 8.912307 1.189291 -18.750107 0
M  V30 48 H 7.486083 4.309997 -10.750095 0
M  V30 49 H 8.639034 0.983909 -16.246486 0
M  V30 50 H 8.502826 0.064284 -14.864675 0
M  V30 51 H 7.307967 -2.141782 -19.355232 0
M  V30 52 H 6.604979 2.648516 -17.391920 0
M  V30 53 H 10.466898 5.558792 -7.250409 0
M  V30 54 H 4.852066 0.790237 -14.022346 0
M  V30 55 H 5.676019 -0.635323 -14.574877 0
M  V30 56 H 6.256734 1.512756 -20.276855 0
M  V30 57 H 7.502966 0.182938 -20.503097 0
M  V30 58 H 11.490465 7.701706 -7.978522 0
M  V30 59 H 10.853210 8.705089 -10.160376 0
M  V30 60 H 5.403047 5.795159 -12.877795 0
M  V30 61 H 5.973024 4.221314 -12.572531 0
M  V30 62 H 5.815522 0.734193 -18.071433 0
M  V30 63 H 7.459492 -2.945091 -17.803608 0
M  V30 64 H 7.775410 -1.704198 -15.978406 0
M  V30 END ATOM
M  V30 BEGIN BOND
M  V30 1 1 5 3
M  V30 2 1 5 4
M  V30 3 2 8 6
M  V30 4 1 9 3
M  V30 5 1 15 8
M  V30 6 1 16 2
M  V30 7 1 16 8
M  V30 8 1 17 9
M  V30 9 2 18 15
M  V30 10 1 19 1
M  V30 11 1 19 10
M  V30 12 2 20 14
M  V30 13 2 21 11
M  V30 14 1 21 13
M  V30 15 1 22 10
M  V30 16 1 22 13
M  V30 17 1 23 6
M  V30 18 1 24 2
M  V30 19 2 24 12
M  V30 20 1 24 18
M  V30 21 1 25 5
M  V30 22 2 25 7
M  V30 23 1 25 11
M  V30 24 1 26 9
M  V30 25 1 26 14
M  V30 26 1 27 13
M  V30 27 1 27 22
M  V30 28 2 28 23
M  V30 29 2 29 16
M  V30 30 1 29 28
M  V30 31 1 30 4
M  V30 32 1 30 18
M  V30 33 2 31 10
M  V30 34 1 31 17
M  V30 35 1 32 14
M  V30 36 1 33 1
M  V30 37 1 34 1
M  V30 38 1 35 1
M  V30 39 1 36 2
M  V30 40 1 37 2
M  V30 41 1 38 3
M  V30 42 1 39 3
M  V30 43 1 40 4
M  V30 44 1 41 4
M  V30 45 1 42 6
M  V30 46 1 43 7
M  V30 47 1 44 7
M  V30 48 1 9 45 CFG=3
M  V30 49 1 46 11
M  V30 50 1 13 47 CFG=3
M  V30 51 1 48 15
M  V30 52 1 49 17
M  V30 53 1 50 17
M  V30 54 1 51 19
M  V30 55 1 52 21
M  V30 56 1 53 23
M  V30 57 1 54 26
M  V30 58 1 55 26
M  V30 59 1 56 27
M  V30 60 1 57 27
M  V30 61 1 58 28
M  V30 62 1 59 29
M  V30 63 1 60 30
M  V30 64 1 61 30
M  V30 65 1 22 62 CFG=1
M  V30 66 1 63 19
M  V30 67 1 64 31
M  V30 END BOND
M  V30 END CTAB
M  END
>  <i_epik_Tot_Q>  (1) 
0

>  <i_epik_Tot_abs_Q>  (1) 
2

>  <i_i_glide_confnum>  (1) 
43

>  <i_i_glide_lignum>  (1) 
44

>  <i_i_glide_posenum>  (1) 
150

>  <i_i_glide_rotatable_bonds>  (1) 
6

>  <i_lp_mmshare_version>  (1) 
72125

>  <i_m_source_file_index>  (1) 
26

>  <i_f3d_flags>  (1) 
0

>  <num_sample>  (1) 
100

>  <b_lp_Chiralities_Consistent>  (1) 
1

>  <r_epik_Charging_Adjusted_Penalty>  (1) 
0.12353365736142194

>  <r_epik_Ionization_Penalty>  (1) 
13.465358995569625

>  <r_epik_Ionization_Penalty_Charging>  (1) 
0.062700894571276394

>  <r_epik_Ionization_Penalty_Neutral>  (1) 
13.402658100998348

>  <r_epik_State_Penalty>  (1) 
0.060832762790145552

>  <r_glide_ring_energy>  (1) 
0

>  <r_i_docking_score>  (1) 
-4.4468319663257585

>  <r_i_glide_ecoul>  (1) 
-5.3567287815334819

>  <r_i_glide_eff_state_penalty>  (1) 
0.060832762790145552

>  <r_i_glide_einternal>  (1) 
5.3483292697363831

>  <r_i_glide_emodel>  (1) 
-41.883576593625143

>  <r_i_glide_emodel_strain>  (1) 
2.8351078174466267

>  <r_i_glide_energy>  (1) 
-38.444288660124855

>  <r_i_glide_erotb>  (1) 
0.42539970400538585

>  <r_i_glide_esite>  (1) 
-0.084359359755661112

>  <r_i_glide_evdw>  (1) 
-33.087559878591371

>  <r_i_glide_gscore>  (1) 
-4.5076647291159038

>  <r_i_glide_gscore_strain>  (1) 
0

>  <r_i_glide_hbond>  (1) 
0

>  <r_i_glide_ligand_efficiency>  (1) 
-0.13896349894767995

>  <r_i_glide_ligand_efficiency_ln>  (1) 
-0.99576689332163215

>  <r_i_glide_ligand_efficiency_sa>  (1) 
-0.44118160882945795

>  <r_i_glide_lipo>  (1) 
-0.88852816436100346

>  <r_i_glide_metal>  (1) 
-0

>  <r_i_glide_rewards>  (1) 
-1.5022895978450348

>  <r_lp_Energy>  (1) 
54.374595999999997

>  <s_epik_Chemistry_Notes>  (1) 
This compound has an imine and may undergo hydrolysis.

>  <s_epik_cmdline>  (1) 
J2VwaWtfcHl0aG9uJywgJy1waHQnLCAnMS4wJywgJy1waCcsICc3LjQnLCAnLXRuJywgJzgnLCAnLW1hJywgJzUwMCcsICctaW1hZScsICc8aW5maWxlLm1hZT4nLCAnLW9tYWUnLCAnPG91dGZpbGUubWFlPic=

>  <s_epik_input>  (1) 
W0NIM10vW0NIXT1DKFxbQ0BIXShbQ0BIXTEyKVtDSDJdMilbTkhdW0NIMl1bQ0BASF0oW0NIMl1DKD1PKVtPSF0pW0NIMl1OKEMoPVtDSDJdKS9bQ0hdPVtDSF0vMSlbQ0gyXVtDSDJdQyg9W0NIXTMpQyg9TylbQ0gyXWMoYzM0KVtjSF1bY0hdW2NIXVtjSF00

>  <s_glide_docking_method>  (1) 
confgen

>  <s_i_glide_gridfile>  (1) 
gpcr_drd2_6luq_protein_autoprepared_prepared

>  <s_lp_Force_Field>  (1) 
S-OPLS

>  <s_lp_Variant>  (1) 
DiffSBDD_25-2

>  <s_m_source_file>  (1) 
generated_generic_title2_ligand_DiffSBDD_2026-06-23_prepared.sdf

>  <GenAI_Model>  (1) 
DiffSBDD

>  <Protein>  (1) 
generic_title2

$$$$
DiffSBDD_70
     RDKit          3D

  0  0  0  0  0  0  0  0  0  0999 V3000
M  V30 BEGIN CTAB
M  V30 COUNTS 74 78 0 0 1
M  V30 BEGIN ATOM
M  V30 1 C 8.174736 0.359578 -15.965364 0
M  V30 2 C 10.212717 7.603163 -9.436915 0
M  V30 3 C 9.186436 2.953084 -17.526504 0
M  V30 4 C 9.453673 7.438781 -10.765506 0
M  V30 5 C 17.572721 6.871750 -17.345514 0
M  V30 6 N 16.815433 4.793480 -16.385591 0
M  V30 7 C 5.642642 4.340012 -11.160809 0
M  V30 8 C 7.786808 5.590329 -10.616758 0 CFG=1
M  V30 9 C 7.874352 5.066594 -9.196829 0
M  V30 10 C 6.802844 2.158845 -17.767231 0
M  V30 11 C 6.965969 4.906855 -11.710731 0 CFG=2
M  V30 12 O 12.982169 5.376551 -17.788966 0
M  V30 13 C 9.084343 5.005580 -10.087945 0 CFG=2
M  V30 14 C 7.516366 5.669692 -14.137437 0
M  V30 15 C 6.690847 5.873019 -12.869555 0
M  V30 16 C 7.888607 2.659927 -16.789082 0 CFG=1
M  V30 17 C 15.990561 8.272473 -18.566371 0
M  V30 18 C 11.956333 4.487666 -17.347807 0
M  V30 19 O 8.108013 1.757269 -15.694493 0
M  V30 20 Cl 18.535328 9.198508 -18.369938 0
M  V30 21 C 7.577712 4.227516 -14.689795 0
M  V30 22 C 8.564846 5.138207 -16.935908 0 CFG=2
M  V30 23 C 17.288373 8.043139 -18.076929 0
M  V30 24 C 5.774402 6.852603 -12.775863 0
M  V30 25 C 7.819141 5.989909 -17.984244 0
M  V30 26 N 9.489378 4.236092 -17.566804 0
M  V30 27 C 14.976033 7.333215 -18.324804 0
M  V30 28 C 10.704322 4.773162 -18.183771 0
M  V30 29 C 16.561691 5.918887 -17.090016 0
M  V30 30 N 14.516936 4.091487 -16.610018 0
M  V30 31 C 15.775473 3.968736 -16.182860 0
M  V30 32 N 9.076985 6.043108 -11.105366 0 CFG=2 CHG=1
M  V30 33 O 9.871487 2.059217 -18.024368 0
M  V30 34 C 7.584448 4.118991 -16.239070 0 CFG=1
M  V30 35 C 14.272035 5.210927 -17.322581 0
M  V30 36 C 15.263534 6.166413 -17.588811 0
M  V30 37 H 8.457702 -0.167355 -15.053995 0
M  V30 38 H 7.204771 -0.035010 -16.268678 0
M  V30 39 H 8.905588 0.109656 -16.732397 0
M  V30 40 H 10.547956 8.633571 -9.317477 0
M  V30 41 H 9.578779 7.374806 -8.580024 0
M  V30 42 H 11.092938 6.961897 -9.391553 0
M  V30 43 H 10.091222 7.796771 -11.573573 0
M  V30 44 H 8.574110 8.080891 -10.785172 0
M  V30 45 H 18.571701 6.703254 -16.972534 0
M  V30 46 H 4.998451 3.996193 -11.970520 0
M  V30 47 H 5.807133 3.490582 -10.498502 0
M  V30 48 H 5.090390 5.087477 -10.590464 0
M  V30 49 H 7.880067 5.800718 -8.394576 0
M  V30 50 H 7.375456 4.135465 -8.947679 0
M  V30 51 H 6.550973 2.919777 -18.506837 0
M  V30 52 H 7.125182 1.273506 -18.316480 0
M  V30 53 H 5.888446 1.898973 -17.237278 0
M  V30 54 H 7.537465 4.055795 -12.079460 0
M  V30 55 H 9.376512 4.045738 -10.509743 0
M  V30 56 H 7.103868 6.330500 -14.901360 0
M  V30 57 H 8.529926 6.024139 -13.952400 0
M  V30 58 H 15.773905 9.170433 -19.127426 0
M  V30 59 H 11.760945 4.669264 -16.289530 0
M  V30 60 H 12.231920 3.438551 -17.468482 0
M  V30 61 H 8.465534 3.748032 -14.276546 0
M  V30 62 H 6.723610 3.654933 -14.324311 0
M  V30 63 H 9.103659 5.766909 -16.227424 0
M  V30 64 H 5.196763 6.993415 -11.873186 0
M  V30 65 H 5.591888 7.525866 -13.600418 0
M  V30 66 H 7.026454 6.575769 -17.518168 0
M  V30 67 H 8.484546 6.692834 -18.484857 0
M  V30 68 H 7.356791 5.367438 -18.751329 0
M  V30 69 H 13.977397 7.508611 -18.699182 0
M  V30 70 H 10.823116 4.375994 -19.192597 0
M  V30 71 H 10.602738 5.853010 -18.295371 0
M  V30 72 H 15.988671 3.081052 -15.605696 0
M  V30 73 H 6.575459 4.391660 -16.541487 0
M  V30 74 H 9.248858 5.734002 -12.051118 0
M  V30 END ATOM
M  V30 BEGIN BOND
M  V30 1 1 4 2
M  V30 2 1 8 9 CFG=1
M  V30 3 1 11 7
M  V30 4 1 11 8
M  V30 5 1 13 8
M  V30 6 1 13 9
M  V30 7 1 15 11
M  V30 8 1 15 14
M  V30 9 1 16 3
M  V30 10 1 16 10
M  V30 11 1 18 12
M  V30 12 1 19 1
M  V30 13 1 16 19 CFG=1
M  V30 14 1 21 14
M  V30 15 2 23 5
M  V30 16 1 23 17
M  V30 17 1 23 20
M  V30 18 2 24 15
M  V30 19 1 25 22
M  V30 20 1 26 3
M  V30 21 1 26 22
M  V30 22 2 27 17
M  V30 23 1 28 18
M  V30 24 1 28 26
M  V30 25 1 29 5
M  V30 26 2 29 6
M  V30 27 1 31 6
M  V30 28 2 31 30
M  V30 29 1 32 4
M  V30 30 1 32 8
M  V30 31 1 32 13
M  V30 32 2 33 3
M  V30 33 1 34 16
M  V30 34 1 34 21
M  V30 35 1 34 22
M  V30 36 1 35 12
M  V30 37 1 35 30
M  V30 38 1 36 27
M  V30 39 1 36 29
M  V30 40 2 36 35
M  V30 41 1 37 1
M  V30 42 1 38 1
M  V30 43 1 39 1
M  V30 44 1 40 2
M  V30 45 1 41 2
M  V30 46 1 42 2
M  V30 47 1 43 4
M  V30 48 1 44 4
M  V30 49 1 45 5
M  V30 50 1 46 7
M  V30 51 1 47 7
M  V30 52 1 48 7
M  V30 53 1 49 9
M  V30 54 1 50 9
M  V30 55 1 51 10
M  V30 56 1 52 10
M  V30 57 1 53 10
M  V30 58 1 11 54 CFG=3
M  V30 59 1 13 55 CFG=3
M  V30 60 1 56 14
M  V30 61 1 57 14
M  V30 62 1 58 17
M  V30 63 1 59 18
M  V30 64 1 60 18
M  V30 65 1 61 21
M  V30 66 1 62 21
M  V30 67 1 22 63 CFG=1
M  V30 68 1 64 24
M  V30 69 1 65 24
M  V30 70 1 66 25
M  V30 71 1 67 25
M  V30 72 1 68 25
M  V30 73 1 69 27
M  V30 74 1 70 28
M  V30 75 1 71 28
M  V30 76 1 72 31
M  V30 77 1 34 73 CFG=3
M  V30 78 1 32 74 CFG=3
M  V30 END BOND
M  V30 END CTAB
M  END
>  <i_epik_Tot_Q>  (1) 
1

>  <i_epik_Tot_abs_Q>  (1) 
1

>  <i_i_glide_confnum>  (1) 
487

>  <i_i_glide_lignum>  (1) 
114

>  <i_i_glide_posenum>  (1) 
100

>  <i_i_glide_rotatable_bonds>  (1) 
11

>  <i_lp_mmshare_version>  (1) 
72125

>  <i_m_source_file_index>  (1) 
71

>  <i_f3d_flags>  (1) 
0

>  <num_sample>  (1) 
100

>  <b_lp_Chiralities_Consistent>  (1) 
1

>  <r_epik_Charging_Adjusted_Penalty>  (1) 
0.028882640618341202

>  <r_epik_Ionization_Penalty>  (1) 
0.014531529159765241

>  <r_epik_Ionization_Penalty_Charging>  (1) 
0.014441320309170608

>  <r_epik_Ionization_Penalty_Neutral>  (1) 
9.020885059463329e-05

>  <r_epik_State_Penalty>  (1) 
0.014441320309170594

>  <r_glide_ring_energy>  (1) 
0

>  <r_i_docking_score>  (1) 
-4.4458876001077492

>  <r_i_glide_ecoul>  (1) 
-4.8702013599726168

>  <r_i_glide_eff_state_penalty>  (1) 
0.014441320309170594

>  <r_i_glide_einternal>  (1) 
8.8985677448707143

>  <r_i_glide_emodel>  (1) 
-49.541309095200646

>  <r_i_glide_emodel_strain>  (1) 
2.6087431571046125

>  <r_i_glide_energy>  (1) 
-42.997807594938358

>  <r_i_glide_erotb>  (1) 
0.62084064417162321

>  <r_i_glide_esite>  (1) 
-0.055471426642106775

>  <r_i_glide_evdw>  (1) 
-38.127606234965739

>  <r_i_glide_gscore>  (1) 
-4.4603289204169201

>  <r_i_glide_gscore_strain>  (1) 
0

>  <r_i_glide_hbond>  (1) 
-0.30933822698020819

>  <r_i_glide_ligand_efficiency>  (1) 
-0.12349687778077081

>  <r_i_glide_ligand_efficiency_ln>  (1) 
-0.96997256034143942

>  <r_i_glide_ligand_efficiency_sa>  (1) 
-0.4077777058977366

>  <r_i_glide_lipo>  (1) 
-1.4008024536776358

>  <r_i_glide_metal>  (1) 
-0

>  <r_i_glide_rewards>  (1) 
-0.67864694154441252

>  <r_lp_Energy>  (1) 
37.300145999999998

>  <r_lp_tautomer_probability>  (1) 
1

>  <s_epik_cmdline>  (1) 
J2VwaWtfcHl0aG9uJywgJy1waHQnLCAnMS4wJywgJy1waCcsICc3LjQnLCAnLXRuJywgJzgnLCAnLW1hJywgJzUwMCcsICctaW1hZScsICc8aW5maWxlLm1hZT4nLCAnLW9tYWUnLCAnPG91dGZpbGUubWFlPic=

>  <s_epik_input>  (1) 
W2NIXTFjKENsKVtjSF1bY0hdYyhjMTIpYyhuW2NIXW4yKU9bQ0gyXVtDSDJdTihDKD1PKVtDQEBdMyhbQ0gzXSlPW0NIM10pW0NAQEhdKFtDSDNdKVtDQEBIXTNbQ0gyXVtDSDJdQyg9W0NIMl0pW0NASF0oW0NIM10pQzQ1W0NASF0oW0NIMl00KU41W0NIMl1bQ0gzXQ==

>  <s_glide_docking_method>  (1) 
confgen

>  <s_i_glide_gridfile>  (1) 
gpcr_drd2_6luq_protein_autoprepared_prepared

>  <s_lp_Force_Field>  (1) 
S-OPLS

>  <s_lp_Variant>  (1) 
DiffSBDD_70-2

>  <s_m_source_file>  (1) 
generated_generic_title2_ligand_DiffSBDD_2026-06-23_prepared.sdf

>  <GenAI_Model>  (1) 
DiffSBDD

>  <Protein>  (1) 
generic_title2

$$$$
DiffSBDD_15
     RDKit          3D

  0  0  0  0  0  0  0  0  0  0999 V3000
M  V30 BEGIN CTAB
M  V30 COUNTS 79 80 0 0 1
M  V30 BEGIN ATOM
M  V30 1 F 13.658120 3.383413 -18.127339 0
M  V30 2 C 9.434864 5.719490 -8.948611 0
M  V30 3 C 9.986735 3.329351 -17.961888 0
M  V30 4 C 11.307414 3.018332 -18.344490 0
M  V30 5 C 7.074961 5.771291 -13.160338 0 CFG=1
M  V30 6 N 8.228750 5.121334 -15.248476 0
M  V30 7 O 10.975440 10.789729 -4.785016 0
M  V30 8 C 10.855217 4.997172 -16.383990 0
M  V30 9 F 8.842196 4.790324 -8.164767 0
M  V30 10 C 11.741259 10.365235 -5.649202 0
M  V30 11 C 7.064997 5.550653 -14.692244 0
M  V30 12 O 7.390900 4.646012 -17.330539 0
M  V30 13 C 7.629576 7.156861 -12.764198 0
M  V30 14 C 7.725486 -0.671184 -19.788366 0
M  V30 15 C 7.872172 -0.275260 -18.309452 0 CFG=1
M  V30 16 C 11.036425 6.239260 -7.059770 0
M  V30 17 C 5.122154 4.121845 -12.845621 0
M  V30 18 C 9.748132 4.338443 -16.970138 0
M  V30 19 O 6.627791 -1.550056 -19.945849 0
M  V30 20 O 8.225037 -1.442776 -17.596210 0
M  V30 21 C 12.532255 6.198473 -1.984568 0
M  V30 22 C 10.516100 6.478896 -8.452125 0
M  V30 23 C 10.183351 6.868017 -5.971454 0
M  V30 24 C 9.142050 7.123234 -12.507412 0
M  V30 25 C 12.167821 4.675756 -16.782380 0
M  V30 26 O 5.734888 5.595375 -11.128943 0
M  V30 27 C 10.669400 7.653970 -10.569181 0
M  V30 28 C 11.431992 6.495797 -3.008493 0
M  V30 29 O 6.033010 5.752196 -15.336561 0
M  V30 30 C 11.906118 7.448120 -4.121963 0
M  V30 31 C 5.677580 5.519600 -12.539922 0 CFG=1
M  V30 32 C 12.392754 3.690302 -17.756755 0
M  V30 33 C 8.338809 4.718947 -16.544504 0
M  V30 34 C 10.945266 7.960401 -5.228428 0 CFG=1
M  V30 35 S 8.647949 2.410840 -18.682996 0
M  V30 36 C 11.124373 7.448888 -9.263709 0
M  V30 37 C 8.991332 0.742483 -18.047918 0
M  V30 38 C 8.980528 5.922546 -10.264194 0
M  V30 39 C 9.603352 6.893564 -11.079775 0
M  V30 40 C 11.574124 8.969268 -6.218001 0
M  V30 41 H 11.487919 2.254550 -19.087206 0
M  V30 42 H 7.731503 5.001306 -12.753182 0
M  V30 43 H 9.046551 5.059884 -14.661075 0
M  V30 44 H 10.699299 5.761042 -15.636970 0
M  V30 45 H 12.566508 10.942450 -6.062206 0
M  V30 46 H 7.429925 7.851884 -13.582852 0
M  V30 47 H 7.119063 7.596025 -11.906106 0
M  V30 48 H 8.631081 -1.152184 -20.161257 0
M  V30 49 H 7.553343 0.210845 -20.404259 0
M  V30 50 H 6.927521 0.108446 -17.920730 0
M  V30 51 H 11.069590 5.190269 -6.893422 0
M  V30 52 H 12.084398 6.532398 -6.997786 0
M  V30 53 H 4.972921 3.971881 -13.909814 0
M  V30 54 H 5.781028 3.335363 -12.475639 0
M  V30 55 H 4.152467 3.990221 -12.385227 0
M  V30 56 H 5.832002 -1.087492 -19.728856 0
M  V30 57 H 7.563049 -2.101386 -17.758144 0
M  V30 58 H 12.121581 5.590316 -1.185133 0
M  V30 59 H 13.381318 5.649326 -2.385166 0
M  V30 60 H 12.905089 7.121045 -1.542024 0
M  V30 61 H 9.267621 7.281163 -6.398981 0
M  V30 62 H 9.842344 6.097411 -5.281345 0
M  V30 63 H 9.637744 6.393848 -13.153171 0
M  V30 64 H 9.527212 8.101669 -12.783389 0
M  V30 65 H 13.005239 5.188163 -16.331883 0
M  V30 66 H 6.068451 6.445577 -10.857259 0
M  V30 67 H 11.142592 8.390193 -11.184928 0
M  V30 68 H 10.575438 6.790182 -2.424560 0
M  V30 69 H 11.116706 5.590189 -3.494624 0
M  V30 70 H 12.575412 6.789622 -4.638377 0
M  V30 71 H 12.473040 8.276324 -3.694183 0
M  V30 72 H 4.977223 6.281101 -12.888315 0
M  V30 73 H 10.175543 8.534128 -4.785061 0
M  V30 74 H 11.951776 8.028666 -8.886490 0
M  V30 75 H 9.140180 0.836428 -16.971447 0
M  V30 76 H 9.934799 0.386547 -18.462082 0
M  V30 77 H 8.162657 5.334185 -10.641966 0
M  V30 78 H 12.532428 8.638176 -6.616263 0
M  V30 79 H 10.907102 9.085817 -7.071471 0
M  V30 END ATOM
M  V30 BEGIN BOND
M  V30 1 1 4 3
M  V30 2 1 9 2
M  V30 3 2 10 7
M  V30 4 1 11 5
M  V30 5 1 11 6
M  V30 6 1 13 5
M  V30 7 1 15 14
M  V30 8 2 18 3
M  V30 9 1 18 8
M  V30 10 1 19 14
M  V30 11 1 20 15
M  V30 12 2 22 2
M  V30 13 1 22 16
M  V30 14 1 23 16
M  V30 15 1 24 13
M  V30 16 2 25 8
M  V30 17 1 28 21
M  V30 18 2 29 11
M  V30 19 1 30 28
M  V30 20 1 31 5
M  V30 21 1 31 17
M  V30 22 1 31 26
M  V30 23 1 32 1
M  V30 24 2 32 4
M  V30 25 1 32 25
M  V30 26 1 33 6
M  V30 27 2 33 12
M  V30 28 1 33 18
M  V30 29 1 34 23
M  V30 30 1 34 30
M  V30 31 1 35 3
M  V30 32 1 36 22
M  V30 33 2 36 27
M  V30 34 1 37 15
M  V30 35 1 37 35
M  V30 36 1 38 2
M  V30 37 1 39 24
M  V30 38 1 39 27
M  V30 39 2 39 38
M  V30 40 1 40 10
M  V30 41 1 40 34
M  V30 42 1 41 4
M  V30 43 1 5 42 CFG=1
M  V30 44 1 43 6
M  V30 45 1 44 8
M  V30 46 1 45 10
M  V30 47 1 46 13
M  V30 48 1 47 13
M  V30 49 1 48 14
M  V30 50 1 49 14
M  V30 51 1 15 50 CFG=1
M  V30 52 1 51 16
M  V30 53 1 52 16
M  V30 54 1 53 17
M  V30 55 1 54 17
M  V30 56 1 55 17
M  V30 57 1 56 19
M  V30 58 1 57 20
M  V30 59 1 58 21
M  V30 60 1 59 21
M  V30 61 1 60 21
M  V30 62 1 61 23
M  V30 63 1 62 23
M  V30 64 1 63 24
M  V30 65 1 64 24
M  V30 66 1 65 25
M  V30 67 1 66 26
M  V30 68 1 67 27
M  V30 69 1 68 28
M  V30 70 1 69 28
M  V30 71 1 70 30
M  V30 72 1 71 30
M  V30 73 1 31 72 CFG=3
M  V30 74 1 34 73 CFG=1
M  V30 75 1 74 36
M  V30 76 1 75 37
M  V30 77 1 76 37
M  V30 78 1 77 38
M  V30 79 1 78 40
M  V30 80 1 79 40
M  V30 END BOND
M  V30 END CTAB
M  END
>  <i_epik_Tot_Q>  (1) 
0

>  <i_epik_Tot_abs_Q>  (1) 
0

>  <i_i_glide_confnum>  (1) 
11196

>  <i_i_glide_lignum>  (1) 
30

>  <i_i_glide_posenum>  (1) 
47

>  <i_i_glide_rotatable_bonds>  (1) 
22

>  <i_lp_mmshare_version>  (1) 
72125

>  <i_m_source_file_index>  (1) 
16

>  <i_f3d_flags>  (1) 
0

>  <num_sample>  (1) 
100

>  <b_lp_Chiralities_Consistent>  (1) 
1

>  <r_epik_Charging_Adjusted_Penalty>  (1) 
0

>  <r_epik_Ionization_Penalty>  (1) 
3.4355340850982391e-06

>  <r_epik_Ionization_Penalty_Charging>  (1) 
0

>  <r_epik_Ionization_Penalty_Neutral>  (1) 
3.4355340850982391e-06

>  <r_epik_State_Penalty>  (1) 
-0

>  <r_glide_ring_energy>  (1) 
0

>  <r_i_docking_score>  (1) 
-4.4421294710609374

>  <r_i_glide_ecoul>  (1) 
-2.1389298909765575

>  <r_i_glide_eff_state_penalty>  (1) 
-0

>  <r_i_glide_einternal>  (1) 
30.970548705384005

>  <r_i_glide_emodel>  (1) 
-30.338162828935303

>  <r_i_glide_emodel_strain>  (1) 
1.6211418730476908

>  <r_i_glide_energy>  (1) 
-38.722439387259676

>  <r_i_glide_erotb>  (1) 
0.95789386429869372

>  <r_i_glide_esite>  (1) 
-0.0018795068639547643

>  <r_i_glide_evdw>  (1) 
-36.583509496283121

>  <r_i_glide_gscore>  (1) 
-4.4421294710609374

>  <r_i_glide_gscore_strain>  (1) 
0

>  <r_i_glide_hbond>  (1) 
-0.11332464296859066

>  <r_i_glide_ligand_efficiency>  (1) 
-0.11105323677652343

>  <r_i_glide_ligand_efficiency_ln>  (1) 
-0.94737549014263855

>  <r_i_glide_ligand_efficiency_sa>  (1) 
-0.37979672737689413

>  <r_i_glide_lipo>  (1) 
-1.8715995285323048

>  <r_i_glide_metal>  (1) 
-0

>  <r_i_glide_rewards>  (1) 
-1.2632046985341414

>  <r_lp_Energy>  (1) 
37.492081999999996

>  <r_lp_tautomer_probability>  (1) 
1

>  <s_epik_cmdline>  (1) 
J2VwaWtfcHl0aG9uJywgJy1waHQnLCAnMS4wJywgJy1waCcsICc3LjQnLCAnLXRuJywgJzgnLCAnLW1hJywgJzUwMCcsICctaW1hZScsICc8aW5maWxlLm1hZT4nLCAnLW9tYWUnLCAnPG91dGZpbGUubWFlPic=

>  <s_epik_input>  (1) 
W09IXVtDSDJdW0NAQEhdKFtPSF0pW0NIMl1TYzFbY0hdYyhGKVtjSF1bY0hdYzFDKD1PKVtOSF1DKD1PKVtDQEhdKFtDQEBIXShbQ0gzXSlbT0hdKVtDSDJdW0NIMl1jKFtjSF0yKVtjSF1bY0hdYyhjMkYpW0NIMl1bQ0gyXVtDQEhdKFtDSDJdW0NIXT1PKVtDSDJdW0NIMl1bQ0gzXQ==

>  <s_glide_docking_method>  (1) 
confgen

>  <s_i_glide_gridfile>  (1) 
gpcr_drd2_6luq_protein_autoprepared_prepared

>  <s_lp_Force_Field>  (1) 
S-OPLS

>  <s_lp_Variant>  (1) 
DiffSBDD_15-1

>  <s_m_source_file>  (1) 
generated_generic_title2_ligand_DiffSBDD_2026-06-23_prepared.sdf

>  <GenAI_Model>  (1) 
DiffSBDD

>  <Protein>  (1) 
generic_title2

$$$$
DiffSBDD_48
     RDKit          3D

  0  0  0  0  0  0  0  0  0  0999 V3000
M  V30 BEGIN CTAB
M  V30 COUNTS 49 50 0 0 1
M  V30 BEGIN ATOM
M  V30 1 C 11.375410 9.307123 -6.383672 0
M  V30 2 S 7.510661 4.033829 -14.931939 0
M  V30 3 O 12.272600 9.880275 -5.882604 0
M  V30 4 N 5.967068 0.159692 -18.121790 0
M  V30 5 C 10.189885 6.582535 -12.034043 0
M  V30 6 C 8.699689 5.716813 -10.311381 0
M  V30 7 O 6.175310 4.462903 -14.490658 0
M  V30 8 C 11.066462 6.293038 -5.089764 0
M  V30 9 O 10.982533 7.190620 -8.756698 0
M  V30 10 O 8.369430 5.021611 -15.602283 0
M  V30 11 N 8.311960 3.670885 -13.418631 0
M  V30 12 C 7.958794 1.183395 -13.750341 0
M  V30 13 C 10.457069 7.235248 -7.435576 0 CFG=2
M  V30 14 C 9.740604 5.589946 -12.924247 0
M  V30 15 C 4.975345 -0.023122 -18.898753 0
M  V30 16 N 7.561282 2.570861 -15.660193 0 CHG=-1
M  V30 17 C 8.764994 4.656994 -12.514998 0
M  V30 18 C 10.148333 7.724347 -9.774289 0
M  V30 19 C 10.366815 8.674286 -6.939222 0
M  V30 20 C 8.243672 4.726914 -11.199271 0
M  V30 21 C 7.943555 2.395410 -12.794333 0
M  V30 22 O 4.747496 -0.409973 -16.194904 0
M  V30 23 C 9.669299 6.648898 -10.728508 0
M  V30 24 C 5.794557 -0.063464 -16.758491 0
M  V30 25 C 7.082273 0.150583 -15.937416 0
M  V30 26 C 7.064283 1.375930 -14.983405 0 CFG=1
M  V30 27 C 11.361183 6.307562 -6.601454 0
M  V30 28 H 10.934943 7.292829 -12.355527 0
M  V30 29 H 8.296454 5.769786 -9.310328 0
M  V30 30 H 11.722882 5.590235 -4.579590 0
M  V30 31 H 10.037868 5.990784 -4.894315 0
M  V30 32 H 11.224257 7.259363 -4.615675 0
M  V30 33 H 8.975412 0.973706 -14.064631 0
M  V30 34 H 7.630665 0.301225 -13.199989 0
M  V30 35 H 9.448231 6.818318 -7.424842 0
M  V30 36 H 10.145681 5.543195 -13.924136 0
M  V30 37 H 5.075903 0.152699 -19.972926 0
M  V30 38 H 4.006243 -0.357809 -18.513631 0
M  V30 39 H 9.291253 8.267970 -9.377977 0
M  V30 40 H 10.737136 8.457185 -10.325955 0
M  V30 41 H 9.412904 9.163784 -7.070495 0
M  V30 42 H 7.492027 4.025842 -10.872502 0
M  V30 43 H 6.937959 2.498937 -12.384949 0
M  V30 44 H 8.636391 2.186233 -11.985142 0
M  V30 45 H 7.200534 -0.755108 -15.343953 0
M  V30 46 H 7.956744 0.182102 -16.589569 0
M  V30 47 H 6.050466 1.520130 -14.614752 0
M  V30 48 H 11.260063 5.297183 -6.995591 0
M  V30 49 H 12.399966 6.561155 -6.785048 0
M  V30 END ATOM
M  V30 BEGIN BOND
M  V30 1 2 3 1
M  V30 2 2 7 2
M  V30 3 2 10 2
M  V30 4 1 11 2
M  V30 5 1 13 9
M  V30 6 2 14 5
M  V30 7 2 15 4
M  V30 8 1 16 2
M  V30 9 1 17 11
M  V30 10 1 17 14
M  V30 11 1 18 9
M  V30 12 2 19 1
M  V30 13 1 19 13
M  V30 14 1 20 6
M  V30 15 2 20 17
M  V30 16 1 21 11
M  V30 17 1 21 12
M  V30 18 1 23 5
M  V30 19 2 23 6
M  V30 20 1 23 18
M  V30 21 1 24 4
M  V30 22 2 24 22
M  V30 23 1 25 24
M  V30 24 1 26 12
M  V30 25 1 26 16
M  V30 26 1 26 25
M  V30 27 1 27 8
M  V30 28 1 27 13
M  V30 29 1 28 5
M  V30 30 1 29 6
M  V30 31 1 30 8
M  V30 32 1 31 8
M  V30 33 1 32 8
M  V30 34 1 33 12
M  V30 35 1 34 12
M  V30 36 1 13 35 CFG=3
M  V30 37 1 36 14
M  V30 38 1 37 15
M  V30 39 1 38 15
M  V30 40 1 39 18
M  V30 41 1 40 18
M  V30 42 1 41 19
M  V30 43 1 42 20
M  V30 44 1 43 21
M  V30 45 1 44 21
M  V30 46 1 45 25
M  V30 47 1 46 25
M  V30 48 1 26 47 CFG=1
M  V30 49 1 48 27
M  V30 50 1 49 27
M  V30 END BOND
M  V30 END CTAB
M  END
>  <i_epik_Tot_Q>  (1) 
-1

>  <i_epik_Tot_abs_Q>  (1) 
1

>  <i_i_glide_confnum>  (1) 
314

>  <i_i_glide_lignum>  (1) 
78

>  <i_i_glide_posenum>  (1) 
109

>  <i_i_glide_rotatable_bonds>  (1) 
9

>  <i_lp_mmshare_version>  (1) 
72125

>  <i_m_source_file_index>  (1) 
49

>  <i_f3d_flags>  (1) 
0

>  <num_sample>  (1) 
100

>  <b_lp_Chiralities_Consistent>  (1) 
1

>  <r_epik_Charging_Adjusted_Penalty>  (1) 
1.1273595753974743

>  <r_epik_Ionization_Penalty>  (1) 
0.56367978799068119

>  <r_epik_Ionization_Penalty_Charging>  (1) 
0.56367978769873717

>  <r_epik_Ionization_Penalty_Neutral>  (1) 
2.9194397843885657e-10

>  <r_epik_State_Penalty>  (1) 
0.56367978769873717

>  <r_glide_ring_energy>  (1) 
0

>  <r_i_docking_score>  (1) 
-4.4413505309551455

>  <r_i_glide_ecoul>  (1) 
-1.8602839629582169

>  <r_i_glide_eff_state_penalty>  (1) 
0.56367978769873717

>  <r_i_glide_einternal>  (1) 
10.253979563841531

>  <r_i_glide_emodel>  (1) 
-47.150021009209937

>  <r_i_glide_emodel_strain>  (1) 
0.40508663170937709

>  <r_i_glide_energy>  (1) 
-41.842151359214633

>  <r_i_glide_erotb>  (1) 
1.0141341284107193

>  <r_i_glide_esite>  (1) 
0

>  <r_i_glide_evdw>  (1) 
-39.981867396256419

>  <r_i_glide_gscore>  (1) 
-5.0050303186538825

>  <r_i_glide_gscore_strain>  (1) 
0

>  <r_i_glide_hbond>  (1) 
0

>  <r_i_glide_ligand_efficiency>  (1) 
-0.16449446410944984

>  <r_i_glide_ligand_efficiency_ln>  (1) 
-1.0338731822202929

>  <r_i_glide_ligand_efficiency_sa>  (1) 
-0.49348339232834959

>  <r_i_glide_lipo>  (1) 
-1.9185961726631395

>  <r_i_glide_metal>  (1) 
-0

>  <r_i_glide_rewards>  (1) 
-1.822432310144908

>  <r_lp_Energy>  (1) 
50.405653999999998

>  <s_epik_Chemistry_Notes>  (1) 
This compound has an imine and may undergo hydrolysis.

>  <s_epik_cmdline>  (1) 
J2VwaWtfcHl0aG9uJywgJy1waHQnLCAnMS4wJywgJy1waCcsICc3LjQnLCAnLXRuJywgJzgnLCAnLW1hJywgJzUwMCcsICctaW1hZScsICc8aW5maWxlLm1hZT4nLCAnLW9tYWUnLCAnPG91dGZpbGUubWFlPic=

>  <s_epik_input>  (1) 
Tz1DPVtDSF1bQ0BIXShbQ0gyXVtDSDNdKU9bQ0gyXWMoW2NIXVtjSF0xKVtjSF1bY0hdYzFOKFMyKD1PKT1PKVtDSDJdW0NIMl1bQ0BASF0oW05IXTIpW0NIMl1DKD1PKU49W0NIMl0=

>  <s_glide_docking_method>  (1) 
confgen

>  <s_i_glide_gridfile>  (1) 
gpcr_drd2_6luq_protein_autoprepared_prepared

>  <s_lp_Force_Field>  (1) 
S-OPLS

>  <s_lp_Variant>  (1) 
DiffSBDD_48-2

>  <s_m_source_file>  (1) 
generated_generic_title2_ligand_DiffSBDD_2026-06-23_prepared.sdf

>  <GenAI_Model>  (1) 
DiffSBDD

>  <Protein>  (1) 
generic_title2

$$$$
DiffSBDD_94
     RDKit          3D

  0  0  0  0  0  0  0  0  0  0999 V3000
M  V30 BEGIN CTAB
M  V30 COUNTS 65 69 0 0 1
M  V30 BEGIN ATOM
M  V30 1 C 5.919695 6.947991 -16.732966 0
M  V30 2 C 8.310538 5.455031 -12.443526 0
M  V30 3 O 10.194016 7.311069 -5.475460 0
M  V30 4 C 5.807291 6.478127 -15.281027 0
M  V30 5 C 10.254696 6.769285 -6.763080 0 CFG=1
M  V30 6 N 7.844119 8.829514 -22.300971 0
M  V30 7 C 6.990446 9.883488 -22.378639 0
M  V30 8 C 6.451766 5.791867 -17.577163 0 CFG=2
M  V30 9 C 6.059106 7.464697 -21.645588 0
M  V30 10 C 11.299262 7.413400 -7.653541 0 CFG=1
M  V30 11 Cl 8.189551 3.721171 -17.766607 0
M  V30 12 C 11.534730 6.059893 -6.990260 0
M  V30 13 C 5.614137 6.062457 -21.241395 0 CFG=2
M  V30 14 C 7.517584 7.328049 -12.722977 0
M  V30 15 C 7.095736 5.952662 -13.244097 0 CFG=1
M  V30 16 C 7.806948 5.312416 -17.044773 0 CFG=2
M  V30 17 C 9.594212 7.218969 -9.566794 0 CFG=1
M  V30 18 C 4.421796 5.559237 -22.075388 0
M  V30 19 C 5.622008 9.776640 -22.085569 0
M  V30 20 O 8.954216 4.668616 -15.041839 0
M  V30 21 N 7.378419 7.617471 -21.936860 0
M  V30 22 N 8.149119 6.641291 -11.590873 0 CFG=2 CHG=1
M  V30 23 C 11.037659 7.579643 -9.142643 0
M  V30 24 N 7.030021 5.861932 -14.731685 0
M  V30 25 F 12.026739 8.469482 -7.134370 0
M  V30 26 C 9.422760 7.233955 -11.099878 0
M  V30 27 C 5.138434 8.524624 -21.704296 0
M  V30 28 C 8.980268 6.148477 -7.277392 0
M  V30 29 O 8.771651 4.946256 -9.354245 0
M  V30 30 C 7.977880 5.244729 -15.509789 0
M  V30 31 C 5.359080 5.939695 -19.726141 0
M  V30 32 C 9.079165 5.992659 -8.790203 0
M  V30 33 N 6.591863 6.165641 -18.978951 0
M  V30 34 H 6.575237 7.815760 -16.785200 0
M  V30 35 H 4.945691 7.282767 -17.093392 0
M  V30 36 H 9.281220 5.487299 -12.933728 0
M  V30 37 H 8.160194 4.508757 -11.922863 0
M  V30 38 H 9.774262 6.681929 -4.906262 0
M  V30 39 H 5.006818 5.741995 -15.203658 0
M  V30 40 H 5.497538 7.322695 -14.663708 0
M  V30 41 H 7.415672 10.830064 -22.679057 0
M  V30 42 H 5.775379 4.948404 -17.526459 0
M  V30 43 H 12.199249 5.982391 -6.136337 0
M  V30 44 H 11.375422 5.144129 -7.553861 0
M  V30 45 H 6.437452 5.386337 -21.482099 0
M  V30 46 H 6.692933 7.971730 -12.412356 0
M  V30 47 H 8.209442 7.851328 -13.379718 0
M  V30 48 H 6.167814 5.621892 -12.768922 0
M  V30 49 H 8.587743 5.990101 -17.391148 0
M  V30 50 H 8.975748 8.032553 -9.189063 0
M  V30 51 H 4.652955 5.583928 -23.140497 0
M  V30 52 H 4.173456 4.527449 -21.823262 0
M  V30 53 H 3.528457 6.161822 -21.921702 0
M  V30 54 H 4.967447 10.632390 -22.153242 0
M  V30 55 H 11.771412 6.992276 -9.690160 0
M  V30 56 H 11.229137 8.620750 -9.405534 0
M  V30 57 H 9.453631 8.280566 -11.407181 0
M  V30 58 H 10.290388 6.768822 -11.569084 0
M  V30 59 H 4.096094 8.376819 -21.465465 0
M  V30 60 H 8.802288 5.191338 -6.798645 0
M  V30 61 H 8.175405 6.823344 -7.021432 0
M  V30 62 H 4.991403 4.933012 -19.520251 0
M  V30 63 H 4.587339 6.639257 -19.404696 0
M  V30 64 H 7.317842 5.592733 -19.389394 0
M  V30 65 H 7.471972 6.533729 -10.841157 0
M  V30 END ATOM
M  V30 BEGIN BOND
M  V30 1 1 4 1
M  V30 2 1 5 3 CFG=1
M  V30 3 1 7 6
M  V30 4 1 8 1
M  V30 5 1 10 5
M  V30 6 1 12 5
M  V30 7 1 12 10
M  V30 8 1 13 9
M  V30 9 1 15 2
M  V30 10 1 15 14
M  V30 11 1 16 8
M  V30 12 1 16 11
M  V30 13 1 18 13
M  V30 14 2 19 7
M  V30 15 2 21 6
M  V30 16 1 21 9
M  V30 17 1 22 2
M  V30 18 1 22 14
M  V30 19 1 23 10
M  V30 20 1 23 17
M  V30 21 1 24 4
M  V30 22 1 24 15
M  V30 23 1 10 25 CFG=1
M  V30 24 1 26 17
M  V30 25 1 26 22
M  V30 26 2 27 9
M  V30 27 1 27 19
M  V30 28 1 28 5
M  V30 29 1 30 16
M  V30 30 2 30 20
M  V30 31 1 30 24
M  V30 32 1 31 13
M  V30 33 1 32 17
M  V30 34 1 32 28
M  V30 35 2 32 29
M  V30 36 1 33 8
M  V30 37 1 33 31
M  V30 38 1 34 1
M  V30 39 1 35 1
M  V30 40 1 36 2
M  V30 41 1 37 2
M  V30 42 1 38 3
M  V30 43 1 39 4
M  V30 44 1 40 4
M  V30 45 1 41 7
M  V30 46 1 8 42 CFG=3
M  V30 47 1 43 12
M  V30 48 1 44 12
M  V30 49 1 13 45 CFG=3
M  V30 50 1 46 14
M  V30 51 1 47 14
M  V30 52 1 15 48 CFG=1
M  V30 53 1 16 49 CFG=3
M  V30 54 1 17 50 CFG=1
M  V30 55 1 51 18
M  V30 56 1 52 18
M  V30 57 1 53 18
M  V30 58 1 54 19
M  V30 59 1 55 23
M  V30 60 1 56 23
M  V30 61 1 57 26
M  V30 62 1 58 26
M  V30 63 1 59 27
M  V30 64 1 60 28
M  V30 65 1 61 28
M  V30 66 1 62 31
M  V30 67 1 63 31
M  V30 68 1 64 33
M  V30 69 1 22 65 CFG=1
M  V30 END BOND
M  V30 END CTAB
M  END
>  <i_epik_Tot_Q>  (1) 
1

>  <i_epik_Tot_abs_Q>  (1) 
1

>  <i_i_glide_confnum>  (1) 
696

>  <i_i_glide_lignum>  (1) 
182

>  <i_i_glide_posenum>  (1) 
343

>  <i_i_glide_rotatable_bonds>  (1) 
8

>  <i_lp_mmshare_version>  (1) 
72125

>  <i_m_source_file_index>  (1) 
95

>  <i_f3d_flags>  (1) 
0

>  <num_sample>  (1) 
100

>  <b_lp_Chiralities_Consistent>  (1) 
1

>  <r_epik_Charging_Adjusted_Penalty>  (1) 
1.4532026091556733

>  <r_epik_Ionization_Penalty>  (1) 
1.1658176113502041

>  <r_epik_Ionization_Penalty_Charging>  (1) 
0.22723193656236854

>  <r_epik_Ionization_Penalty_Neutral>  (1) 
0.93858567478783561

>  <r_epik_State_Penalty>  (1) 
1.2259706725933048

>  <r_glide_ring_energy>  (1) 
0

>  <r_i_docking_score>  (1) 
-4.4393625883185708

>  <r_i_glide_ecoul>  (1) 
-4.5367434169988785

>  <r_i_glide_eff_state_penalty>  (1) 
1.2259706725933048

>  <r_i_glide_einternal>  (1) 
6.7350141709963633

>  <r_i_glide_emodel>  (1) 
-40.491525100541125

>  <r_i_glide_emodel_strain>  (1) 
1.4730310649561886

>  <r_i_glide_energy>  (1) 
-36.970759615757281

>  <r_i_glide_erotb>  (1) 
0.52602338862990483

>  <r_i_glide_esite>  (1) 
-0.19381949044249053

>  <r_i_glide_evdw>  (1) 
-32.4340161987584

>  <r_i_glide_gscore>  (1) 
-5.6653332609118756

>  <r_i_glide_gscore_strain>  (1) 
0

>  <r_i_glide_hbond>  (1) 
-0.11903663787972461

>  <r_i_glide_ligand_efficiency>  (1) 
-0.13452613903995669

>  <r_i_glide_ligand_efficiency_ln>  (1) 
-0.98729125385274075

>  <r_i_glide_ligand_efficiency_sa>  (1) 
-0.43149720925245288

>  <r_i_glide_lipo>  (1) 
-1.8935174141709996

>  <r_i_glide_metal>  (1) 
-0

>  <r_i_glide_rewards>  (1) 
-1.6827707845608135

>  <r_lp_Energy>  (1) 
59.784298

>  <s_epik_cmdline>  (1) 
J2VwaWtfcHl0aG9uJywgJy1waHQnLCAnMS4wJywgJy1waCcsICc3LjQnLCAnLXRuJywgJzgnLCAnLW1hJywgJzUwMCcsICctaW1hZScsICc8aW5maWxlLm1hZT4nLCAnLW9tYWUnLCAnPG91dGZpbGUubWFlPic=

>  <s_epik_input>  (1) 
W2NIXTFbY0hdW2NIXW5uYzFbQ0BIXShbQ0gzXSlbQ0gyXVtOSF1bQ0BASF0yW0NIMl1bQ0gyXU4oQyg9TylbQ0BIXTJDbClbQ0hdM1tDSDJdTihbQ0gyXTMpW0NIMl1bQ0BASF0oQyg9TylbQ0gyXTQpW0NIMl1bQ0BdKEYpKFtDSDJdNSlbQ0BAXTQ1W09IXQ==

>  <s_glide_docking_method>  (1) 
confgen

>  <s_i_glide_gridfile>  (1) 
gpcr_drd2_6luq_protein_autoprepared_prepared

>  <s_lp_Force_Field>  (1) 
S-OPLS

>  <s_lp_Variant>  (1) 
DiffSBDD_94-5

>  <s_m_source_file>  (1) 
generated_generic_title2_ligand_DiffSBDD_2026-06-23_prepared.sdf

>  <GenAI_Model>  (1) 
DiffSBDD

>  <Protein>  (1) 
generic_title2

$$$$
DiffSBDD_27
     RDKit          3D

  0  0  0  0  0  0  0  0  0  0999 V3000
M  V30 BEGIN CTAB
M  V30 COUNTS 81 86 0 0 1
M  V30 BEGIN ATOM
M  V30 1 O 9.375410 8.790280 -9.432296 0
M  V30 2 C 6.856502 2.318751 -13.537254 0
M  V30 3 C 14.632424 -0.762272 -18.528389 0
M  V30 4 C 12.692911 4.559479 -18.279633 0
M  V30 5 C 8.610284 6.290425 -11.344914 0
M  V30 6 C 11.170468 2.768782 -19.953212 0 CFG=1
M  V30 7 O 10.595191 3.863278 -19.232100 0
M  V30 8 C 11.518111 1.553480 -19.020046 0 CFG=1
M  V30 9 C 7.382111 3.257965 -16.571309 0
M  V30 10 O 7.966583 -0.409773 -15.941511 0
M  V30 11 C 9.973517 3.631697 -22.135224 0
M  V30 12 N 9.079279 1.650988 -20.845077 0
M  V30 13 C 5.555063 0.390161 -14.671288 0
M  V30 14 O 6.785556 1.122795 -19.837468 0
M  V30 15 C 7.932052 0.948733 -15.564671 0 CFG=2
M  V30 16 C 8.701953 1.713484 -18.015100 0 CFG=2
M  V30 17 O 5.775460 2.786174 -13.185154 0
M  V30 18 O 7.641311 3.515982 -19.794057 0
M  V30 19 C 9.225973 6.593612 -10.086325 0 CFG=1
M  V30 20 C 10.146294 7.778435 -10.010830 0
M  V30 21 O 10.598337 0.467286 -19.105738 0
M  V30 22 C 10.226635 2.517691 -21.144293 0
M  V30 23 C 12.880188 0.914640 -19.337898 0
M  V30 24 C 8.169501 3.018602 -13.189392 0
M  V30 25 C 7.464990 5.416356 -13.737018 0
M  V30 26 O 9.252302 4.180991 -10.748045 0
M  V30 27 C 6.944200 0.992198 -14.341150 0 CFG=1
M  V30 28 C 8.084937 4.499143 -12.850347 0
M  V30 29 C 9.569059 0.430441 -18.123469 0
M  V30 30 C 11.363905 4.701884 -18.448648 0
M  V30 31 C 8.785109 5.802301 -8.862478 0 CFG=1
M  V30 32 C 8.643755 4.980945 -11.659927 0
M  V30 33 C 9.766123 4.790528 -8.316169 0
M  V30 34 C 8.004226 7.231809 -12.198752 0
M  V30 35 C 7.625866 1.770275 -16.869785 0 CFG=2
M  V30 36 C 9.775377 5.175588 -9.775592 0 CFG=1
M  V30 37 S 7.893722 2.073037 -19.664126 0
M  V30 38 C 13.337576 -0.020489 -18.204693 0
M  V30 39 C 10.771733 2.420498 -22.552234 0
M  V30 40 C 7.423742 6.790224 -13.405408 0
M  V30 41 H 8.455020 8.495619 -9.443347 0
M  V30 42 H 14.944315 -1.358694 -17.672399 0
M  V30 43 H 14.502422 -1.432792 -19.378199 0
M  V30 44 H 15.442539 -0.072858 -18.762835 0
M  V30 45 H 13.243177 5.246854 -17.653963 0
M  V30 46 H 13.244158 3.767416 -18.755023 0
M  V30 47 H 12.090042 3.135528 -20.408581 0
M  V30 48 H 11.584097 1.908645 -17.990363 0
M  V30 49 H 8.270200 3.733969 -16.154809 0
M  V30 50 H 7.091215 3.826057 -17.450775 0
M  V30 51 H 6.575415 3.386413 -15.868967 0
M  V30 52 H 7.909226 -0.979436 -15.184676 0
M  V30 53 H 8.966888 3.734225 -22.536764 0
M  V30 54 H 10.512088 4.565990 -21.988725 0
M  V30 55 H 9.375649 0.683879 -20.707567 0
M  V30 56 H 4.820389 0.556711 -13.883233 0
M  V30 57 H 5.152511 0.789858 -15.599730 0
M  V30 58 H 5.620764 -0.690509 -14.797190 0
M  V30 59 H 8.934348 1.190361 -15.220853 0
M  V30 60 H 9.383790 2.527257 -17.804748 0
M  V30 61 H 10.521616 8.057676 -10.996227 0
M  V30 62 H 10.995912 7.558182 -9.362611 0
M  V30 63 H 12.822852 0.370261 -20.281461 0
M  V30 64 H 13.639563 1.683057 -19.478798 0
M  V30 65 H 8.819234 2.987437 -14.043013 0
M  V30 66 H 8.661397 2.470004 -12.385115 0
M  V30 67 H 7.028195 5.075687 -14.657117 0
M  V30 68 H 7.372512 0.314664 -13.601761 0
M  V30 69 H 10.076933 0.226481 -17.185017 0
M  V30 70 H 8.937121 -0.429974 -18.345487 0
M  V30 71 H 10.775072 5.482705 -17.988771 0
M  V30 72 H 7.747577 5.473762 -8.878597 0
M  V30 73 H 9.330663 3.856426 -7.985375 0
M  V30 74 H 10.560247 5.190411 -7.687809 0
M  V30 75 H 7.979580 8.277429 -11.930151 0
M  V30 76 H 6.696303 1.368416 -17.272901 0
M  V30 77 H 13.475506 0.558483 -17.290584 0
M  V30 78 H 12.560625 -0.752606 -17.981725 0
M  V30 79 H 11.842972 2.549200 -22.695794 0
M  V30 80 H 10.292603 1.723245 -23.237651 0
M  V30 81 H 6.953587 7.497862 -14.073415 0
M  V30 END ATOM
M  V30 BEGIN BOND
M  V30 1 1 7 6
M  V30 2 1 8 6
M  V30 3 1 15 10
M  V30 4 2 17 2
M  V30 5 1 19 5
M  V30 6 1 20 1
M  V30 7 1 19 20 CFG=1
M  V30 8 1 21 8
M  V30 9 1 22 6
M  V30 10 1 22 11
M  V30 11 1 22 12
M  V30 12 1 23 8
M  V30 13 1 24 2
M  V30 14 1 27 2
M  V30 15 1 27 13
M  V30 16 1 27 15
M  V30 17 1 28 24
M  V30 18 1 28 25
M  V30 19 1 29 16
M  V30 20 1 29 21
M  V30 21 2 30 4
M  V30 22 1 30 7
M  V30 23 1 31 19
M  V30 24 1 32 5
M  V30 25 1 32 26
M  V30 26 2 32 28
M  V30 27 1 33 31
M  V30 28 2 34 5
M  V30 29 1 35 9
M  V30 30 1 35 15
M  V30 31 1 35 16
M  V30 32 1 36 19
M  V30 33 1 36 26 CFG=3
M  V30 34 1 36 31
M  V30 35 1 36 33
M  V30 36 1 37 12
M  V30 37 2 37 14
M  V30 38 1 37 16
M  V30 39 2 37 18
M  V30 40 1 38 3
M  V30 41 1 38 23
M  V30 42 1 39 11
M  V30 43 1 39 22
M  V30 44 2 40 25
M  V30 45 1 40 34
M  V30 46 1 41 1
M  V30 47 1 42 3
M  V30 48 1 43 3
M  V30 49 1 44 3
M  V30 50 1 45 4
M  V30 51 1 46 4
M  V30 52 1 6 47 CFG=3
M  V30 53 1 8 48 CFG=1
M  V30 54 1 49 9
M  V30 55 1 50 9
M  V30 56 1 51 9
M  V30 57 1 52 10
M  V30 58 1 53 11
M  V30 59 1 54 11
M  V30 60 1 55 12
M  V30 61 1 56 13
M  V30 62 1 57 13
M  V30 63 1 58 13
M  V30 64 1 15 59 CFG=1
M  V30 65 1 16 60 CFG=1
M  V30 66 1 61 20
M  V30 67 1 62 20
M  V30 68 1 63 23
M  V30 69 1 64 23
M  V30 70 1 65 24
M  V30 71 1 66 24
M  V30 72 1 67 25
M  V30 73 1 27 68 CFG=1
M  V30 74 1 69 29
M  V30 75 1 70 29
M  V30 76 1 71 30
M  V30 77 1 31 72 CFG=3
M  V30 78 1 73 33
M  V30 79 1 74 33
M  V30 80 1 75 34
M  V30 81 1 35 76 CFG=3
M  V30 82 1 77 38
M  V30 83 1 78 38
M  V30 84 1 79 39
M  V30 85 1 80 39
M  V30 86 1 81 40
M  V30 END BOND
M  V30 END CTAB
M  END
>  <i_epik_Tot_Q>  (1) 
0

>  <i_epik_Tot_abs_Q>  (1) 
0

>  <i_i_glide_confnum>  (1) 
1962

>  <i_i_glide_lignum>  (1) 
48

>  <i_i_glide_posenum>  (1) 
248

>  <i_i_glide_rotatable_bonds>  (1) 
13

>  <i_lp_mmshare_version>  (1) 
72125

>  <i_m_source_file_index>  (1) 
28

>  <i_f3d_flags>  (1) 
2

>  <num_sample>  (1) 
100

>  <b_lp_Chiralities_Consistent>  (1) 
0

>  <r_epik_Charging_Adjusted_Penalty>  (1) 
0

>  <r_epik_Ionization_Penalty>  (1) 
0.00012193090232543848

>  <r_epik_Ionization_Penalty_Charging>  (1) 
0

>  <r_epik_Ionization_Penalty_Neutral>  (1) 
0.00012193090232543848

>  <r_epik_State_Penalty>  (1) 
-0

>  <r_glide_ring_energy>  (1) 
0

>  <r_i_docking_score>  (1) 
-4.4364134333136436

>  <r_i_glide_ecoul>  (1) 
-6.4015513387773577

>  <r_i_glide_eff_state_penalty>  (1) 
-0

>  <r_i_glide_einternal>  (1) 
9.5791239299627051

>  <r_i_glide_emodel>  (1) 
-35.780337540315877

>  <r_i_glide_emodel_strain>  (1) 
2.559548795842062

>  <r_i_glide_energy>  (1) 
-35.140232838495699

>  <r_i_glide_erotb>  (1) 
0.53438368926625224

>  <r_i_glide_esite>  (1) 
0

>  <r_i_glide_evdw>  (1) 
-28.738681499718339

>  <r_i_glide_gscore>  (1) 
-4.4364134333136436

>  <r_i_glide_gscore_strain>  (1) 
0

>  <r_i_glide_hbond>  (1) 
-0.35395683250408044

>  <r_i_glide_ligand_efficiency>  (1) 
-0.11091033583284109

>  <r_i_glide_ligand_efficiency_ln>  (1) 
-0.94615642750662243

>  <r_i_glide_ligand_efficiency_sa>  (1) 
-0.3793080130239857

>  <r_i_glide_lipo>  (1) 
-1.4933249068792107

>  <r_i_glide_metal>  (1) 
-0

>  <r_i_glide_rewards>  (1) 
-0.72634860739408424

>  <r_lp_Energy>  (1) 
34.534008

>  <r_lp_tautomer_probability>  (1) 
1

>  <s_epik_cmdline>  (1) 
J2VwaWtfcHl0aG9uJywgJy1waHQnLCAnMS4wJywgJy1waCcsICc3LjQnLCAnLXRuJywgJzgnLCAnLW1hJywgJzUwMCcsICctaW1hZScsICc8aW5maWxlLm1hZT4nLCAnLW9tYWUnLCAnPG91dGZpbGUubWFlPic=

>  <s_epik_input>  (1) 
W09IXVtDSDJdW0NAQF0oW0NAXTEyMykoW0NIXTJbQ0gyXTMpYzRjKE8xKWMoW2NIXVtjSF1bY0hdNClbQ0gyXUMoPU8pW0NAQEhdKFtDSDNdKVtDQEBIXShbT0hdKVtDQEBIXShbQ0gzXSlbQ0BIXShTKD1PKSg9TylbTkhdNSlbQ0gyXU9bQ0BASF0oW0NIMl1bQ0gyXVtDSDNdKVtDQEhdKE9bQ0hdPVtDSDJdKUM1NltDSDJdW0NIMl02

>  <s_glide_docking_method>  (1) 
confgen

>  <s_i_glide_gridfile>  (1) 
gpcr_drd2_6luq_protein_autoprepared_prepared

>  <s_lp_Force_Field>  (1) 
S-OPLS

>  <s_lp_Variant>  (1) 
DiffSBDD_27-1

>  <s_m_source_file>  (1) 
generated_generic_title2_ligand_DiffSBDD_2026-06-23_prepared.sdf

>  <GenAI_Model>  (1) 
DiffSBDD

>  <Protein>  (1) 
generic_title2

$$$$
DiffSBDD_39
     RDKit          3D

  0  0  0  0  0  0  0  0  0  0999 V3000
M  V30 BEGIN CTAB
M  V30 COUNTS 48 49 0 0 1
M  V30 BEGIN ATOM
M  V30 1 C 10.575400 7.289728 -5.578188 0
M  V30 2 C 12.434035 8.129893 -3.183882 0
M  V30 3 O 4.892845 0.790199 -13.909681 0
M  V30 4 C 6.155579 0.419355 -13.428655 0
M  V30 5 C 7.197720 0.219699 -14.500266 0
M  V30 6 C 9.097287 5.121426 -9.990965 0
M  V30 7 C 12.020551 6.889982 -3.553484 0
M  V30 8 C 11.960363 9.411651 -3.692748 0
M  V30 9 C 9.935421 6.237018 -7.840044 0
M  V30 10 C 11.160556 8.614536 -5.946000 0
M  V30 11 C 11.375409 9.629934 -4.878361 0
M  V30 12 C 6.846427 3.767284 -12.774631 0
M  V30 13 C 10.998749 6.542032 -4.545275 0
M  V30 14 C 7.311502 1.386601 -13.533402 0 CFG=1
M  V30 15 C 9.462874 6.791541 -6.492013 0
M  V30 16 C 8.807039 5.443587 -8.525358 0
M  V30 17 N 7.864331 4.791404 -10.729606 0 CHG=1
M  V30 18 O 6.175416 -0.409783 -12.301675 0
M  V30 19 C 7.109359 2.830610 -13.966356 0
M  V30 20 C 8.135988 4.132613 -12.024247 0
M  V30 21 H 13.155644 8.172157 -2.381282 0
M  V30 22 H 4.508799 0.036723 -14.333067 0
M  V30 23 H 7.907915 -0.595399 -14.384966 0
M  V30 24 H 6.920055 0.445696 -15.527845 0
M  V30 25 H 9.775456 4.271599 -10.030382 0
M  V30 26 H 9.584367 5.961201 -10.488906 0
M  V30 27 H 12.450882 6.063796 -3.005566 0
M  V30 28 H 12.096553 10.263134 -3.047972 0
M  V30 29 H 10.802581 5.590428 -7.700469 0
M  V30 30 H 10.258656 7.067189 -8.469436 0
M  V30 31 H 12.094306 8.454895 -6.485068 0
M  V30 32 H 10.492490 9.086901 -6.667153 0
M  V30 33 H 11.072518 10.637222 -5.126007 0
M  V30 34 H 6.371833 4.682305 -13.131560 0
M  V30 35 H 6.130142 3.293788 -12.101317 0
M  V30 36 H 10.530606 5.590215 -4.424375 0
M  V30 37 H 8.103622 1.265667 -12.796316 0
M  V30 38 H 8.726162 7.583246 -6.642204 0
M  V30 39 H 8.922742 5.999494 -5.971805 0
M  V30 40 H 7.870544 5.990223 -8.453342 0
M  V30 41 H 8.628373 4.514126 -7.984767 0
M  V30 42 H 7.346563 5.651380 -10.868795 0
M  V30 43 H 5.825545 -1.258085 -12.571473 0
M  V30 44 H 7.984541 3.161189 -14.526413 0
M  V30 45 H 6.272489 2.882986 -14.660669 0
M  V30 46 H 8.726631 3.235168 -11.836804 0
M  V30 47 H 8.753072 4.785733 -12.643618 0
M  V30 48 H 7.303365 4.173452 -10.160287 0
M  V30 END ATOM
M  V30 BEGIN BOND
M  V30 1 1 4 3
M  V30 2 1 5 4
M  V30 3 2 7 2
M  V30 4 1 8 2
M  V30 5 1 10 1
M  V30 6 2 11 8
M  V30 7 1 11 10
M  V30 8 2 13 1
M  V30 9 1 13 7
M  V30 10 1 14 4
M  V30 11 1 14 5
M  V30 12 1 15 1
M  V30 13 1 15 9
M  V30 14 1 16 6
M  V30 15 1 16 9
M  V30 16 1 17 6
M  V30 17 1 18 4
M  V30 18 1 19 12
M  V30 19 1 19 14
M  V30 20 1 20 12
M  V30 21 1 20 17
M  V30 22 1 21 2
M  V30 23 1 22 3
M  V30 24 1 23 5
M  V30 25 1 24 5
M  V30 26 1 25 6
M  V30 27 1 26 6
M  V30 28 1 27 7
M  V30 29 1 28 8
M  V30 30 1 29 9
M  V30 31 1 30 9
M  V30 32 1 31 10
M  V30 33 1 32 10
M  V30 34 1 33 11
M  V30 35 1 34 12
M  V30 36 1 35 12
M  V30 37 1 36 13
M  V30 38 1 14 37 CFG=1
M  V30 39 1 38 15
M  V30 40 1 39 15
M  V30 41 1 40 16
M  V30 42 1 41 16
M  V30 43 1 42 17
M  V30 44 1 43 18
M  V30 45 1 44 19
M  V30 46 1 45 19
M  V30 47 1 46 20
M  V30 48 1 47 20
M  V30 49 1 48 17
M  V30 END BOND
M  V30 END CTAB
M  END
>  <i_epik_Tot_Q>  (1) 
1

>  <i_epik_Tot_abs_Q>  (1) 
1

>  <i_i_glide_confnum>  (1) 
81

>  <i_i_glide_lignum>  (1) 
65

>  <i_i_glide_posenum>  (1) 
337

>  <i_i_glide_rotatable_bonds>  (1) 
11

>  <i_lp_mmshare_version>  (1) 
72125

>  <i_m_source_file_index>  (1) 
40

>  <i_f3d_flags>  (1) 
0

>  <num_sample>  (1) 
100

>  <b_lp_Chiralities_Consistent>  (1) 
1

>  <r_epik_Charging_Adjusted_Penalty>  (1) 
0.00040157978397640045

>  <r_epik_Ionization_Penalty>  (1) 
0.00040175900368966919

>  <r_epik_Ionization_Penalty_Charging>  (1) 
0.00040157978397640045

>  <r_epik_Ionization_Penalty_Neutral>  (1) 
1.7921971326873193e-07

>  <r_epik_State_Penalty>  (1) 
-0

>  <r_glide_ring_energy>  (1) 
0

>  <r_i_docking_score>  (1) 
-4.4339375016176206

>  <r_i_glide_ecoul>  (1) 
-7.3844844353860122

>  <r_i_glide_eff_state_penalty>  (1) 
-0

>  <r_i_glide_einternal>  (1) 
3.8517277951504729

>  <r_i_glide_emodel>  (1) 
-49.388249990293382

>  <r_i_glide_emodel_strain>  (1) 
0.79922203265144987

>  <r_i_glide_energy>  (1) 
-36.776944103649342

>  <r_i_glide_erotb>  (1) 
3.7206293097687571

>  <r_i_glide_esite>  (1) 
-0.033850410475962871

>  <r_i_glide_evdw>  (1) 
-29.392459668263328

>  <r_i_glide_gscore>  (1) 
-4.4339375016176206

>  <r_i_glide_gscore_strain>  (1) 
0

>  <r_i_glide_hbond>  (1) 
-0.16

>  <r_i_glide_ligand_efficiency>  (1) 
-0.22169687508088104

>  <r_i_glide_ligand_efficiency_ln>  (1) 
-1.1096683156086105

>  <r_i_glide_ligand_efficiency_sa>  (1) 
-0.60177790326358382

>  <r_i_glide_lipo>  (1) 
-2.9020324885447115

>  <r_i_glide_metal>  (1) 
-0

>  <r_i_glide_rewards>  (1) 
-2.4813882636446354

>  <r_lp_Energy>  (1) 
15.408104999999999

>  <r_lp_tautomer_probability>  (1) 
1

>  <s_epik_cmdline>  (1) 
J2VwaWtfcHl0aG9uJywgJy1waHQnLCAnMS4wJywgJy1waCcsICc3LjQnLCAnLXRuJywgJzgnLCAnLW1hJywgJzUwMCcsICctaW1hZScsICc8aW5maWxlLm1hZT4nLCAnLW9tYWUnLCAnPG91dGZpbGUubWFlPic=

>  <s_epik_input>  (1) 
W0NIMl0xW0NIXT1bQ0hdW0NIXT1bQ0hdW0NIXT1DMVtDSDJdW0NIMl1bQ0gyXVtDSDJdW05IXVtDSDJdW0NIMl1bQ0gyXVtDQEBIXTJbQ0gyXUMyKFtPSF0pW09IXQ==

>  <s_glide_docking_method>  (1) 
confgen

>  <s_i_glide_gridfile>  (1) 
gpcr_drd2_6luq_protein_autoprepared_prepared

>  <s_lp_Force_Field>  (1) 
S-OPLS

>  <s_lp_Variant>  (1) 
DiffSBDD_39-1

>  <s_m_source_file>  (1) 
generated_generic_title2_ligand_DiffSBDD_2026-06-23_prepared.sdf

>  <GenAI_Model>  (1) 
DiffSBDD

>  <Protein>  (1) 
generic_title2

$$$$
DiffSBDD_78
     RDKit          3D

  0  0  0  0  0  0  0  0  0  0999 V3000
M  V30 BEGIN CTAB
M  V30 COUNTS 80 84 0 0 1
M  V30 BEGIN ATOM
M  V30 1 C 11.889847 9.142841 -6.993788 0 CFG=2
M  V30 2 C 13.266018 8.790007 -7.571059 0
M  V30 3 C 5.606737 4.447182 -11.821824 0 CFG=1
M  V30 4 C 6.763533 4.897596 -14.195127 0 CFG=2
M  V30 5 C 11.744029 8.862855 -5.491723 0
M  V30 6 N 8.524448 4.530069 -15.952170 0
M  V30 7 C 7.561496 4.020439 -13.178035 0 CFG=1
M  V30 8 C 7.625537 5.988911 -11.605838 0 CFG=1
M  V30 9 N 10.820265 8.329068 -7.607625 0 CFG=2 CHG=1
M  V30 10 C 10.697537 7.089322 -6.810216 0
M  V30 11 N 8.175284 7.371303 -11.603654 0 CFG=2 CHG=1
M  V30 12 C 5.144832 6.725253 -11.196727 0
M  V30 13 C 7.592888 5.492262 -15.359406 0
M  V30 14 C 8.854234 2.348683 -17.016739 0
M  V30 15 O 6.029506 5.930664 -13.474816 0
M  V30 16 C 7.949694 8.111033 -12.849064 0
M  V30 17 C 8.238590 1.342967 -18.004913 0 CFG=1
M  V30 18 C 6.175271 3.589896 -10.793090 0
M  V30 19 C 6.108911 5.855704 -12.030359 0 CFG=2
M  V30 20 F 7.084112 0.903390 -17.498776 0
M  V30 21 C 11.103436 7.470765 -5.391394 0
M  V30 22 C 4.970207 8.195097 -11.585023 0
M  V30 23 O 7.769971 4.159480 -18.124461 0
M  V30 24 C 8.486525 4.944813 -12.367993 0
M  V30 25 C 7.940004 2.053718 -19.335442 0 CFG=1
M  V30 26 C 9.552037 7.839035 -9.630395 0
M  V30 27 C 7.924173 3.569910 -16.870001 0 CFG=2
M  V30 28 C 10.930385 8.105977 -9.064614 0
M  V30 29 C 9.565809 7.508454 -11.113381 0
M  V30 30 C 9.134052 0.107121 -18.191112 0
M  V30 31 C 7.125422 3.335684 -19.092839 0
M  V30 32 C 6.528401 3.353819 -12.278432 0 CFG=1
M  V30 33 F 9.073636 2.372482 -19.964172 0
M  V30 34 H 11.740554 10.203326 -7.180541 0
M  V30 35 H 14.059355 9.205144 -6.948531 0
M  V30 36 H 13.375435 7.710012 -7.624862 0
M  V30 37 H 13.405531 9.179738 -8.579236 0
M  V30 38 H 4.575408 4.282628 -12.107976 0
M  V30 39 H 6.007334 4.257896 -14.649334 0
M  V30 40 H 11.062785 9.596670 -5.056754 0
M  V30 41 H 12.676658 8.947133 -4.933411 0
M  V30 42 H 9.244529 5.034171 -16.461169 0
M  V30 43 H 8.137089 3.240352 -13.677459 0
M  V30 44 H 7.695669 5.765489 -10.544788 0
M  V30 45 H 9.683715 6.686608 -6.848642 0
M  V30 46 H 11.370743 6.318822 -7.187387 0
M  V30 47 H 4.175434 6.267379 -11.184998 0
M  V30 48 H 5.375409 6.602121 -10.146075 0
M  V30 49 H 8.172030 6.336413 -15.013983 0
M  V30 50 H 6.925396 5.897615 -16.121047 0
M  V30 51 H 9.836915 2.681350 -17.354630 0
M  V30 52 H 8.975612 1.885283 -16.036972 0
M  V30 53 H 8.575415 7.670581 -13.584985 0
M  V30 54 H 6.956067 7.990229 -13.249174 0
M  V30 55 H 8.175421 9.172811 -12.752927 0
M  V30 56 H 6.916559 3.964256 -10.094658 0
M  V30 57 H 5.498392 2.852898 -10.378008 0
M  V30 58 H 10.204283 7.502542 -4.785032 0
M  V30 59 H 11.776273 6.732124 -4.953261 0
M  V30 60 H 4.151619 8.637366 -11.018377 0
M  V30 61 H 5.854772 8.789774 -11.373058 0
M  V30 62 H 4.702807 8.295180 -12.634408 0
M  V30 63 H 9.075914 4.355551 -11.663741 0
M  V30 64 H 9.201810 5.415753 -13.042364 0
M  V30 65 H 7.400193 1.390162 -20.011805 0
M  V30 66 H 8.975406 8.747824 -9.469180 0
M  V30 67 H 9.058030 7.033334 -9.083288 0
M  V30 68 H 6.954209 3.251672 -16.493037 0
M  V30 69 H 11.613998 7.284356 -9.286391 0
M  V30 70 H 11.327563 8.999893 -9.547755 0
M  V30 71 H 10.161843 6.616197 -11.302923 0
M  V30 72 H 10.070955 8.321770 -11.635918 0
M  V30 73 H 10.112093 0.379054 -18.589687 0
M  V30 74 H 9.295953 -0.407959 -17.243498 0
M  V30 75 H 8.682423 -0.605987 -18.880966 0
M  V30 76 H 6.115968 3.095529 -18.755298 0
M  V30 77 H 7.022914 3.897449 -20.021707 0
M  V30 78 H 6.050358 2.491247 -12.741879 0
M  V30 79 H 9.964014 8.841095 -7.447847 0
M  V30 80 H 7.598717 7.826495 -10.889591 0
M  V30 END ATOM
M  V30 BEGIN BOND
M  V30 1 1 2 1
M  V30 2 1 5 1
M  V30 3 1 7 4
M  V30 4 1 9 1
M  V30 5 1 10 9
M  V30 6 1 11 8
M  V30 7 1 13 4
M  V30 8 1 13 6
M  V30 9 1 15 4
M  V30 10 1 16 11
M  V30 11 1 17 14
M  V30 12 1 18 3
M  V30 13 1 19 3
M  V30 14 1 19 8
M  V30 15 1 19 12 CFG=1
M  V30 16 1 19 15
M  V30 17 1 17 20 CFG=1
M  V30 18 1 21 5
M  V30 19 1 21 10
M  V30 20 1 22 12
M  V30 21 1 24 7
M  V30 22 1 24 8
M  V30 23 1 25 17
M  V30 24 1 27 6
M  V30 25 1 27 14
M  V30 26 1 27 23
M  V30 27 1 28 9
M  V30 28 1 28 26
M  V30 29 1 29 11
M  V30 30 1 29 26
M  V30 31 1 30 17
M  V30 32 1 31 23
M  V30 33 1 31 25
M  V30 34 1 32 3
M  V30 35 1 32 7
M  V30 36 1 32 18
M  V30 37 1 33 25
M  V30 38 1 1 34 CFG=1
M  V30 39 1 35 2
M  V30 40 1 36 2
M  V30 41 1 37 2
M  V30 42 1 3 38 CFG=3
M  V30 43 1 4 39 CFG=3
M  V30 44 1 40 5
M  V30 45 1 41 5
M  V30 46 1 42 6
M  V30 47 1 7 43 CFG=3
M  V30 48 1 8 44 CFG=1
M  V30 49 1 45 10
M  V30 50 1 46 10
M  V30 51 1 47 12
M  V30 52 1 48 12
M  V30 53 1 49 13
M  V30 54 1 50 13
M  V30 55 1 51 14
M  V30 56 1 52 14
M  V30 57 1 53 16
M  V30 58 1 54 16
M  V30 59 1 55 16
M  V30 60 1 56 18
M  V30 61 1 57 18
M  V30 62 1 58 21
M  V30 63 1 59 21
M  V30 64 1 60 22
M  V30 65 1 61 22
M  V30 66 1 62 22
M  V30 67 1 63 24
M  V30 68 1 64 24
M  V30 69 1 25 65 CFG=3
M  V30 70 1 66 26
M  V30 71 1 67 26
M  V30 72 1 27 68 CFG=1
M  V30 73 1 69 28
M  V30 74 1 70 28
M  V30 75 1 71 29
M  V30 76 1 72 29
M  V30 77 1 73 30
M  V30 78 1 74 30
M  V30 79 1 75 30
M  V30 80 1 76 31
M  V30 81 1 77 31
M  V30 82 1 32 78 CFG=3
M  V30 83 1 9 79 CFG=3
M  V30 84 1 11 80 CFG=1
M  V30 END BOND
M  V30 END CTAB
M  END
>  <i_epik_Tot_Q>  (1) 
2

>  <i_epik_Tot_abs_Q>  (1) 
2

>  <i_i_glide_confnum>  (1) 
1204

>  <i_i_glide_lignum>  (1) 
129

>  <i_i_glide_posenum>  (1) 
81

>  <i_i_glide_rotatable_bonds>  (1) 
9

>  <i_lp_mmshare_version>  (1) 
72125

>  <i_m_source_file_index>  (1) 
79

>  <i_f3d_flags>  (1) 
0

>  <num_sample>  (1) 
100

>  <b_lp_Chiralities_Consistent>  (1) 
1

>  <r_epik_Charging_Adjusted_Penalty>  (1) 
0.22182564166484353

>  <r_epik_Ionization_Penalty>  (1) 
0.22182564166592098

>  <r_epik_Ionization_Penalty_Charging>  (1) 
0.060182310347739972

>  <r_epik_Ionization_Penalty_Neutral>  (1) 
0.16164333131818101

>  <r_epik_State_Penalty>  (1) 
0.16164333131710357

>  <r_glide_ring_energy>  (1) 
0

>  <r_i_docking_score>  (1) 
-4.4336739978482731

>  <r_i_glide_ecoul>  (1) 
-5.2281868810167289

>  <r_i_glide_eff_state_penalty>  (1) 
0.16164333131710357

>  <r_i_glide_einternal>  (1) 
6.2771890061031268

>  <r_i_glide_emodel>  (1) 
-32.183168829470105

>  <r_i_glide_emodel_strain>  (1) 
1.4392260904520953

>  <r_i_glide_energy>  (1) 
-26.246158453563574

>  <r_i_glide_erotb>  (1) 
0.726867567680611

>  <r_i_glide_esite>  (1) 
-0.10000000000000001

>  <r_i_glide_evdw>  (1) 
-21.017971572546845

>  <r_i_glide_gscore>  (1) 
-4.5953173291653764

>  <r_i_glide_gscore_strain>  (1) 
0

>  <r_i_glide_hbond>  (1) 
-0.20000000000000001

>  <r_i_glide_ligand_efficiency>  (1) 
-0.13435375751055373

>  <r_i_glide_ligand_efficiency_ln>  (1) 
-0.98602614078609174

>  <r_i_glide_ligand_efficiency_sa>  (1) 
-0.43094428957903574

>  <r_i_glide_lipo>  (1) 
-1.94363412053116

>  <r_i_glide_metal>  (1) 
-0

>  <r_i_glide_rewards>  (1) 
-1.2434241655349751

>  <r_lp_Energy>  (1) 
67.377417999999992

>  <s_epik_Chemistry_Notes>  (1) 
This compound contains an acetal/aminal-like group ( X-CH(R)-Y where X, Y are N, S, or O) that may be acid/base labile, releasing an aldehyde.

>  <s_epik_cmdline>  (1) 
J2VwaWtfcHl0aG9uJywgJy1waHQnLCAnMS4wJywgJy1waCcsICc3LjQnLCAnLXRuJywgJzgnLCAnLW1hJywgJzUwMCcsICctaW1hZScsICc8aW5maWxlLm1hZT4nLCAnLW9tYWUnLCAnPG91dGZpbGUubWFlPic=

>  <s_epik_input>  (1) 
W0NIM11bQ0BASF0xW0NIMl1bQ0gyXVtDSDJdTjFbQ0gyXVtDSDJdW0NIMl1OKFtDSDNdKVtDQEBIXTJbQ0gyXVtDQEBIXShbQ0BASF0oW0NIMl0zKVtDQEBIXTNbQ0BAXTI0W0NIMl1bQ0gzXSlbQ0BASF0oTzQpW0NIMl1bTkhdW0NASF0oW0NIMl1bQ0BdNShGKVtDSDNdKU9bQ0gyXVtDQEhdNUY=

>  <s_glide_docking_method>  (1) 
confgen

>  <s_i_glide_gridfile>  (1) 
gpcr_drd2_6luq_protein_autoprepared_prepared

>  <s_lp_Force_Field>  (1) 
S-OPLS

>  <s_lp_Variant>  (1) 
DiffSBDD_78-1

>  <s_m_source_file>  (1) 
generated_generic_title2_ligand_DiffSBDD_2026-06-23_prepared.sdf

>  <GenAI_Model>  (1) 
DiffSBDD

>  <Protein>  (1) 
generic_title2

$$$$
DiffSBDD_78
     RDKit          3D

  0  0  0  0  0  0  0  0  0  0999 V3000
M  V30 BEGIN CTAB
M  V30 COUNTS 80 84 0 0 1
M  V30 BEGIN ATOM
M  V30 1 C 11.272765 8.368368 -7.978662 0 CFG=2
M  V30 2 C 12.434979 8.142725 -8.967753 0
M  V30 3 C 5.574539 3.947274 -12.561205 0 CFG=1
M  V30 4 C 7.092150 2.798381 -14.549973 0 CFG=2
M  V30 5 C 11.417687 7.513794 -6.703011 0
M  V30 6 N 7.635099 2.250413 -16.920883 0
M  V30 7 C 7.471419 2.458503 -13.082838 0 CFG=1
M  V30 8 C 7.886074 4.923646 -12.648312 0 CFG=1
M  V30 9 N 9.915608 8.047220 -8.511194 0 CFG=2 CHG=1
M  V30 10 C 9.477104 6.795310 -7.856146 0
M  V30 11 N 8.806037 6.016993 -13.078371 0 CFG=2 CHG=1
M  V30 12 C 5.806582 6.215328 -13.666118 0
M  V30 13 C 8.175376 2.486391 -15.584715 0
M  V30 14 C 8.087979 1.763120 -19.294777 0
M  V30 15 O 6.732751 4.191917 -14.633139 0
M  V30 16 C 10.175380 5.590228 -13.413897 0
M  V30 17 C 9.193570 1.316313 -20.270668 0 CFG=1
M  V30 18 C 5.824819 3.484320 -11.136413 0
M  V30 19 C 6.507492 4.864462 -13.383105 0 CFG=2
M  V30 20 F 10.167979 2.228418 -20.255968 0
M  V30 21 C 10.032173 6.928592 -6.449439 0
M  V30 22 C 6.393671 7.090238 -14.792126 0
M  V30 23 O 9.068723 0.505562 -17.539406 0
M  V30 24 C 8.496149 3.479708 -12.576695 0
M  V30 25 C 9.788179 -0.024481 -19.801187 0 CFG=1
M  V30 26 C 9.380972 6.943767 -10.762729 0
M  V30 27 C 8.655564 1.798277 -17.862321 0 CFG=2
M  V30 28 C 9.635815 8.235771 -9.966586 0
M  V30 29 C 8.819553 7.211894 -12.178329 0
M  V30 30 C 8.686092 1.249955 -21.720010 0
M  V30 31 C 10.171023 0.037761 -18.312137 0
M  V30 32 C 6.175390 2.572411 -12.319901 0 CFG=1
M  V30 33 F 8.914843 -1.016515 -19.983130 0
M  V30 34 H 11.288440 9.416984 -7.687716 0
M  V30 35 H 13.393959 8.152953 -8.450103 0
M  V30 36 H 12.343369 7.190159 -9.485757 0
M  V30 37 H 12.487933 8.929452 -9.721012 0
M  V30 38 H 4.540777 3.949041 -12.899671 0
M  V30 39 H 6.218653 2.195248 -14.801362 0
M  V30 40 H 11.775178 8.091666 -5.850131 0
M  V30 41 H 12.121477 6.695551 -6.864941 0
M  V30 42 H 6.900141 1.550874 -16.873710 0
M  V30 43 H 7.855572 1.440526 -12.993827 0
M  V30 44 H 7.638120 5.210215 -11.638848 0
M  V30 45 H 8.397680 6.665070 -7.865071 0
M  V30 46 H 9.930133 5.926274 -8.336703 0
M  V30 47 H 4.793645 5.978153 -13.979634 0
M  V30 48 H 5.702051 6.791675 -12.746557 0
M  V30 49 H 8.693409 1.584570 -15.260296 0
M  V30 50 H 8.909916 3.291444 -15.614521 0
M  V30 51 H 7.238864 1.078458 -19.327103 0
M  V30 52 H 7.723565 2.756985 -19.556294 0
M  V30 53 H 10.575425 5.031771 -12.570386 0
M  V30 54 H 10.175377 4.976220 -14.315284 0
M  V30 55 H 10.877973 6.398939 -13.585008 0
M  V30 56 H 6.632016 3.878976 -10.531022 0
M  V30 57 H 4.975435 3.229459 -10.511673 0
M  V30 58 H 9.418027 7.632413 -5.888136 0
M  V30 59 H 10.056014 5.990219 -5.899509 0
M  V30 60 H 5.697091 7.892257 -15.040945 0
M  V30 61 H 7.331763 7.571055 -14.526484 0
M  V30 62 H 6.555246 6.514835 -15.704580 0
M  V30 63 H 8.816160 3.249160 -11.561750 0
M  V30 64 H 9.375336 3.310481 -13.185014 0
M  V30 65 H 10.661009 -0.286066 -20.400183 0
M  V30 66 H 8.668974 6.323746 -10.222355 0
M  V30 67 H 10.314384 6.390205 -10.812586 0
M  V30 68 H 9.513363 2.471743 -17.807471 0
M  V30 69 H 10.434392 8.790206 -10.447551 0
M  V30 70 H 8.768427 8.889634 -10.047098 0
M  V30 71 H 9.407373 7.994379 -12.656718 0
M  V30 72 H 7.811765 7.617706 -12.089137 0
M  V30 73 H 7.876447 0.527889 -21.828432 0
M  V30 74 H 8.308139 2.218042 -22.049267 0
M  V30 75 H 9.483495 0.957237 -22.403310 0
M  V30 76 H 11.028005 0.696030 -18.162175 0
M  V30 77 H 10.466246 -0.948124 -17.951848 0
M  V30 78 H 5.553301 1.699431 -12.506148 0
M  V30 79 H 9.313951 8.734085 -8.077076 0
M  V30 80 H 8.414940 6.341107 -13.952577 0
M  V30 END ATOM
M  V30 BEGIN BOND
M  V30 1 1 2 1
M  V30 2 1 5 1
M  V30 3 1 7 4
M  V30 4 1 9 1
M  V30 5 1 10 9
M  V30 6 1 11 8
M  V30 7 1 13 4
M  V30 8 1 13 6
M  V30 9 1 15 4
M  V30 10 1 16 11
M  V30 11 1 17 14
M  V30 12 1 18 3
M  V30 13 1 19 3
M  V30 14 1 19 8
M  V30 15 1 19 12 CFG=3
M  V30 16 1 19 15
M  V30 17 1 17 20 CFG=3
M  V30 18 1 21 5
M  V30 19 1 21 10
M  V30 20 1 22 12
M  V30 21 1 24 7
M  V30 22 1 24 8
M  V30 23 1 25 17
M  V30 24 1 27 6
M  V30 25 1 27 14
M  V30 26 1 27 23
M  V30 27 1 28 9
M  V30 28 1 28 26
M  V30 29 1 29 11
M  V30 30 1 29 26
M  V30 31 1 30 17
M  V30 32 1 31 23
M  V30 33 1 31 25
M  V30 34 1 32 3
M  V30 35 1 32 7
M  V30 36 1 32 18
M  V30 37 1 33 25
M  V30 38 1 1 34 CFG=1
M  V30 39 1 35 2
M  V30 40 1 36 2
M  V30 41 1 37 2
M  V30 42 1 3 38 CFG=1
M  V30 43 1 4 39 CFG=3
M  V30 44 1 40 5
M  V30 45 1 41 5
M  V30 46 1 42 6
M  V30 47 1 7 43 CFG=3
M  V30 48 1 8 44 CFG=1
M  V30 49 1 45 10
M  V30 50 1 46 10
M  V30 51 1 47 12
M  V30 52 1 48 12
M  V30 53 1 49 13
M  V30 54 1 50 13
M  V30 55 1 51 14
M  V30 56 1 52 14
M  V30 57 1 53 16
M  V30 58 1 54 16
M  V30 59 1 55 16
M  V30 60 1 56 18
M  V30 61 1 57 18
M  V30 62 1 58 21
M  V30 63 1 59 21
M  V30 64 1 60 22
M  V30 65 1 61 22
M  V30 66 1 62 22
M  V30 67 1 63 24
M  V30 68 1 64 24
M  V30 69 1 25 65 CFG=3
M  V30 70 1 66 26
M  V30 71 1 67 26
M  V30 72 1 27 68 CFG=3
M  V30 73 1 69 28
M  V30 74 1 70 28
M  V30 75 1 71 29
M  V30 76 1 72 29
M  V30 77 1 73 30
M  V30 78 1 74 30
M  V30 79 1 75 30
M  V30 80 1 76 31
M  V30 81 1 77 31
M  V30 82 1 32 78 CFG=1
M  V30 83 1 9 79 CFG=1
M  V30 84 1 11 80 CFG=3
M  V30 END BOND
M  V30 END CTAB
M  END
>  <i_epik_Tot_Q>  (1) 
2

>  <i_epik_Tot_abs_Q>  (1) 
2

>  <i_i_glide_confnum>  (1) 
446

>  <i_i_glide_lignum>  (1) 
129

>  <i_i_glide_posenum>  (1) 
208

>  <i_i_glide_rotatable_bonds>  (1) 
9

>  <i_lp_mmshare_version>  (1) 
72125

>  <i_m_source_file_index>  (1) 
79

>  <i_f3d_flags>  (1) 
0

>  <num_sample>  (1) 
100

>  <b_lp_Chiralities_Consistent>  (1) 
1

>  <r_epik_Charging_Adjusted_Penalty>  (1) 
0.22182564166484353

>  <r_epik_Ionization_Penalty>  (1) 
0.22182564166592098

>  <r_epik_Ionization_Penalty_Charging>  (1) 
0.060182310347739972

>  <r_epik_Ionization_Penalty_Neutral>  (1) 
0.16164333131818101

>  <r_epik_State_Penalty>  (1) 
0.16164333131710357

>  <r_glide_ring_energy>  (1) 
0

>  <r_i_docking_score>  (1) 
-4.4322053737928355

>  <r_i_glide_ecoul>  (1) 
-4.6009793627881201

>  <r_i_glide_eff_state_penalty>  (1) 
0.16164333131710357

>  <r_i_glide_einternal>  (1) 
17.495173346744771

>  <r_i_glide_emodel>  (1) 
-28.292790898149452

>  <r_i_glide_emodel_strain>  (1) 
1.325900301765131

>  <r_i_glide_energy>  (1) 
-27.854807353785755

>  <r_i_glide_erotb>  (1) 
0.726867567680611

>  <r_i_glide_esite>  (1) 
-0.083952279022498966

>  <r_i_glide_evdw>  (1) 
-23.253827990997635

>  <r_i_glide_gscore>  (1) 
-4.5938487051099388

>  <r_i_glide_gscore_strain>  (1) 
0

>  <r_i_glide_hbond>  (1) 
0

>  <r_i_glide_ligand_efficiency>  (1) 
-0.13430925375129804

>  <r_i_glide_ligand_efficiency_ln>  (1) 
-0.98569952640029079

>  <r_i_glide_ligand_efficiency_sa>  (1) 
-0.43080154224340927

>  <r_i_glide_lipo>  (1) 
-2.2104164036990306

>  <r_i_glide_metal>  (1) 
-0

>  <r_i_glide_rewards>  (1) 
-1.1735092861009202

>  <r_lp_Energy>  (1) 
67.377417999999992

>  <s_epik_Chemistry_Notes>  (1) 
This compound contains an acetal/aminal-like group ( X-CH(R)-Y where X, Y are N, S, or O) that may be acid/base labile, releasing an aldehyde.

>  <s_epik_cmdline>  (1) 
J2VwaWtfcHl0aG9uJywgJy1waHQnLCAnMS4wJywgJy1waCcsICc3LjQnLCAnLXRuJywgJzgnLCAnLW1hJywgJzUwMCcsICctaW1hZScsICc8aW5maWxlLm1hZT4nLCAnLW9tYWUnLCAnPG91dGZpbGUubWFlPic=

>  <s_epik_input>  (1) 
W0NIM11bQ0BASF0xW0NIMl1bQ0gyXVtDSDJdTjFbQ0gyXVtDSDJdW0NIMl1OKFtDSDNdKVtDQEBIXTJbQ0gyXVtDQEBIXShbQ0BASF0oW0NIMl0zKVtDQEBIXTNbQ0BAXTI0W0NIMl1bQ0gzXSlbQ0BASF0oTzQpW0NIMl1bTkhdW0NASF0oW0NIMl1bQ0BdNShGKVtDSDNdKU9bQ0gyXVtDQEhdNUY=

>  <s_glide_docking_method>  (1) 
confgen

>  <s_i_glide_gridfile>  (1) 
gpcr_drd2_6luq_protein_autoprepared_prepared

>  <s_lp_Force_Field>  (1) 
S-OPLS

>  <s_lp_Variant>  (1) 
DiffSBDD_78-1

>  <s_m_source_file>  (1) 
generated_generic_title2_ligand_DiffSBDD_2026-06-23_prepared.sdf

>  <GenAI_Model>  (1) 
DiffSBDD

>  <Protein>  (1) 
generic_title2

$$$$
DiffSBDD_45
     RDKit          3D

  0  0  0  0  0  0  0  0  0  0999 V3000
M  V30 BEGIN CTAB
M  V30 COUNTS 68 71 0 0 1
M  V30 BEGIN ATOM
M  V30 1 C 7.250889 4.723529 -15.350451 0 CFG=2
M  V30 2 C 11.302744 4.550454 -17.263112 0
M  V30 3 C 10.676266 8.011027 -7.428918 0 CFG=2
M  V30 4 C 7.010273 4.401400 -13.870342 0
M  V30 5 C 8.458445 3.968857 -15.955624 0 CFG=2
M  V30 6 C 10.786872 6.353374 -4.600773 0
M  V30 7 C 7.480795 4.629970 -11.404079 0
M  V30 8 O 7.371435 6.120416 -15.584927 0
M  V30 9 C 8.741858 4.356100 -17.427378 0
M  V30 10 N 11.604088 8.049341 -6.304024 0
M  V30 11 C 12.157285 8.355471 -4.046598 0
M  V30 12 C 10.208503 7.014499 -11.252547 0
M  V30 13 C 9.251530 6.175387 -11.687670 0
M  V30 14 C 8.686544 5.619074 -9.484838 0
M  V30 15 C 12.605676 9.590262 -4.778093 0
M  V30 16 N 8.473219 5.466500 -10.834844 0
M  V30 17 O 12.850730 7.590254 -9.103651 0
M  V30 18 C 11.064876 7.817984 -4.961013 0 CFG=2
M  V30 19 N 10.433583 7.204720 -9.867277 0
M  V30 20 O 8.173458 2.582695 -15.906069 0
M  V30 21 C 12.309437 9.330323 -6.253397 0
M  V30 22 C 10.276725 2.403192 -18.154535 0
M  V30 23 C 10.111330 3.924284 -18.007997 0
M  V30 24 C 8.913602 5.919867 -13.120648 0
M  V30 25 C 6.172900 6.862680 -15.400420 0
M  V30 26 C 9.906420 6.674253 -7.540534 0
M  V30 27 C 7.746496 4.939114 -12.877666 0
M  V30 28 O 11.375412 9.590230 -9.554097 0
M  V30 29 S 11.528971 8.219556 -9.072530 0
M  V30 30 C 9.623438 6.448058 -8.997295 0
M  V30 31 C 5.868092 3.445793 -13.585129 0
M  V30 32 H 6.374830 4.406715 -15.904901 0
M  V30 33 H 11.424972 4.128758 -16.266087 0
M  V30 34 H 12.233659 4.373757 -17.802305 0
M  V30 35 H 11.183429 5.629457 -17.157849 0
M  V30 36 H 9.941631 8.814134 -7.356113 0
M  V30 37 H 9.340636 4.172508 -15.356775 0
M  V30 38 H 10.712409 6.224717 -3.520587 0
M  V30 39 H 9.846146 5.990774 -5.007389 0
M  V30 40 H 11.588166 5.701247 -4.948406 0
M  V30 41 H 6.478125 4.920857 -11.087715 0
M  V30 42 H 7.680756 3.590247 -11.185340 0
M  V30 43 H 7.937184 3.982296 -18.061572 0
M  V30 44 H 8.695605 5.441356 -17.521634 0
M  V30 45 H 12.975562 7.643175 -3.956164 0
M  V30 46 H 11.796261 8.575213 -3.041443 0
M  V30 47 H 10.847726 7.590378 -11.898656 0
M  V30 48 H 8.037143 5.025980 -8.856619 0
M  V30 49 H 13.645107 9.853671 -4.579539 0
M  V30 50 H 11.959763 10.390226 -4.438067 0
M  V30 51 H 10.175412 8.428495 -4.856885 0
M  V30 52 H 8.012440 2.340685 -15.006540 0
M  V30 53 H 13.226276 9.266977 -6.840153 0
M  V30 54 H 11.706611 10.145947 -6.655740 0
M  V30 55 H 10.366140 1.912598 -17.185227 0
M  V30 56 H 9.425920 1.963102 -18.676165 0
M  V30 57 H 11.174651 2.161980 -18.723728 0
M  V30 58 H 10.138373 4.328918 -19.020545 0
M  V30 59 H 9.759361 5.480596 -13.648145 0
M  V30 60 H 8.575406 6.842449 -13.585024 0
M  V30 61 H 6.362534 7.914033 -15.618981 0
M  V30 62 H 5.385707 6.519440 -16.072730 0
M  V30 63 H 5.808046 6.799146 -14.374617 0
M  V30 64 H 8.976325 6.689201 -6.970034 0
M  V30 65 H 10.517262 5.832232 -7.217030 0
M  V30 66 H 6.022053 2.509303 -14.117962 0
M  V30 67 H 5.762928 3.187200 -12.533668 0
M  V30 68 H 4.939446 3.918048 -13.898168 0
M  V30 END ATOM
M  V30 BEGIN BOND
M  V30 1 1 4 1
M  V30 2 1 5 1
M  V30 3 1 8 1
M  V30 4 1 9 5
M  V30 5 1 10 3
M  V30 6 2 13 12
M  V30 7 1 15 11
M  V30 8 1 16 7
M  V30 9 1 16 13
M  V30 10 1 16 14
M  V30 11 1 18 6
M  V30 12 1 18 10
M  V30 13 1 18 11
M  V30 14 1 19 12
M  V30 15 1 20 5
M  V30 16 1 21 10
M  V30 17 1 21 15
M  V30 18 1 23 2
M  V30 19 1 23 9
M  V30 20 1 23 22
M  V30 21 1 24 13
M  V30 22 1 25 8
M  V30 23 1 26 3
M  V30 24 2 27 4
M  V30 25 1 27 7
M  V30 26 1 27 24
M  V30 27 1 29 3
M  V30 28 2 29 17
M  V30 29 1 29 19
M  V30 30 2 29 28
M  V30 31 2 30 14
M  V30 32 1 30 19
M  V30 33 1 30 26
M  V30 34 1 31 4
M  V30 35 1 1 32 CFG=3
M  V30 36 1 33 2
M  V30 37 1 34 2
M  V30 38 1 35 2
M  V30 39 1 3 36 CFG=1
M  V30 40 1 5 37 CFG=1
M  V30 41 1 38 6
M  V30 42 1 39 6
M  V30 43 1 40 6
M  V30 44 1 41 7
M  V30 45 1 42 7
M  V30 46 1 43 9
M  V30 47 1 44 9
M  V30 48 1 45 11
M  V30 49 1 46 11
M  V30 50 1 47 12
M  V30 51 1 48 14
M  V30 52 1 49 15
M  V30 53 1 50 15
M  V30 54 1 18 51 CFG=3
M  V30 55 1 52 20
M  V30 56 1 53 21
M  V30 57 1 54 21
M  V30 58 1 55 22
M  V30 59 1 56 22
M  V30 60 1 57 22
M  V30 61 1 58 23
M  V30 62 1 59 24
M  V30 63 1 60 24
M  V30 64 1 61 25
M  V30 65 1 62 25
M  V30 66 1 63 25
M  V30 67 1 64 26
M  V30 68 1 65 26
M  V30 69 1 66 31
M  V30 70 1 67 31
M  V30 71 1 68 31
M  V30 END BOND
M  V30 END CTAB
M  END
>  <i_epik_Tot_Q>  (1) 
0

>  <i_epik_Tot_abs_Q>  (1) 
0

>  <i_i_glide_confnum>  (1) 
69

>  <i_i_glide_lignum>  (1) 
73

>  <i_i_glide_posenum>  (1) 
260

>  <i_i_glide_rotatable_bonds>  (1) 
7

>  <i_lp_mmshare_version>  (1) 
72125

>  <i_m_source_file_index>  (1) 
46

>  <i_f3d_flags>  (1) 
0

>  <num_sample>  (1) 
100

>  <b_lp_Chiralities_Consistent>  (1) 
1

>  <r_epik_Charging_Adjusted_Penalty>  (1) 
5.5386030856760706e-14

>  <r_epik_Ionization_Penalty>  (1) 
0.0003901755545231811

>  <r_epik_Ionization_Penalty_Charging>  (1) 
5.5386030856760706e-14

>  <r_epik_Ionization_Penalty_Neutral>  (1) 
0.00039017555446779507

>  <r_epik_State_Penalty>  (1) 
-0

>  <r_glide_ring_energy>  (1) 
0

>  <r_i_docking_score>  (1) 
-4.4227166710199368

>  <r_i_glide_ecoul>  (1) 
-1.532654566784613

>  <r_i_glide_eff_state_penalty>  (1) 
-0

>  <r_i_glide_einternal>  (1) 
6.0792300076653953

>  <r_i_glide_emodel>  (1) 
-24.312844911120571

>  <r_i_glide_emodel_strain>  (1) 
0.51067151254571286

>  <r_i_glide_energy>  (1) 
-27.030394340413039

>  <r_i_glide_erotb>  (1) 
0.39335991316148761

>  <r_i_glide_esite>  (1) 
-0.088296600279102286

>  <r_i_glide_evdw>  (1) 
-25.497739773628425

>  <r_i_glide_gscore>  (1) 
-4.4227166710199368

>  <r_i_glide_gscore_strain>  (1) 
0

>  <r_i_glide_hbond>  (1) 
0

>  <r_i_glide_ligand_efficiency>  (1) 
-0.14266827971032053

>  <r_i_glide_ligand_efficiency_ln>  (1) 
-0.99745814930322563

>  <r_i_glide_ligand_efficiency_sa>  (1) 
-0.44817537359196458

>  <r_i_glide_lipo>  (1) 
-2.4512337772027739

>  <r_i_glide_metal>  (1) 
-0

>  <r_i_glide_rewards>  (1) 
-0.77176103300043519

>  <r_lp_Energy>  (1) 
35.233378000000002

>  <r_lp_tautomer_probability>  (1) 
1

>  <s_epik_Chemistry_Notes>  (1) 
This compound has an imine and may undergo hydrolysis.

>  <s_epik_cmdline>  (1) 
J2VwaWtfcHl0aG9uJywgJy1waHQnLCAnMS4wJywgJy1waCcsICc3LjQnLCAnLXRuJywgJzgnLCAnLW1hJywgJzUwMCcsICctaW1hZScsICc8aW5maWxlLm1hZT4nLCAnLW9tYWUnLCAnPG91dGZpbGUubWFlPic=

>  <s_epik_input>  (1) 
W0NIM11bQ0hdKFtDSDNdKVtDSDJdW0NASF0oW09IXSlbQ0BIXShPW0NIM10pL0MoW0NIM10pPUMoW0NIMl0xKS9bQ0gyXU4oQzEyKVtDSF09QzNOKFtDSF09MilTKD1PKSg9TylbQ0BASF0oW0NIMl0zKU40W0NAQEhdKFtDSDNdKVtDSDJdW0NIMl1bQ0gyXTQ=

>  <s_glide_docking_method>  (1) 
confgen

>  <s_i_glide_gridfile>  (1) 
gpcr_drd2_6luq_protein_autoprepared_prepared

>  <s_lp_Force_Field>  (1) 
S-OPLS

>  <s_lp_Variant>  (1) 
DiffSBDD_45-1

>  <s_m_source_file>  (1) 
generated_generic_title2_ligand_DiffSBDD_2026-06-23_prepared.sdf

>  <GenAI_Model>  (1) 
DiffSBDD

>  <Protein>  (1) 
generic_title2

$$$$
DiffSBDD_86
     RDKit          3D

  0  0  0  0  0  0  0  0  0  0999 V3000
M  V30 BEGIN CTAB
M  V30 COUNTS 114 117 0 0 1
M  V30 BEGIN ATOM
M  V30 1 C 13.505889 4.823778 -16.160490 0
M  V30 2 C 14.687763 5.004524 -17.103630 0 CFG=1
M  V30 3 C 8.045461 4.869436 -8.484716 0
M  V30 4 C 4.855304 6.160342 -19.571085 0
M  V30 5 C 9.536631 2.916274 -19.781431 0 CFG=2
M  V30 6 C 8.574797 3.904637 -13.247733 0
M  V30 7 O 9.937955 0.868615 -18.547466 0
M  V30 8 C 7.856461 1.999905 -18.060076 0 CFG=2
M  V30 9 O 8.973056 -1.556192 -17.410431 0
M  V30 10 C 8.552951 0.638414 -18.255732 0 CFG=2
M  V30 11 C 9.595690 3.703539 -21.105449 0
M  V30 12 O 15.772471 5.561599 -16.388747 0
M  V30 13 N 8.175418 5.867237 -10.736488 0
M  V30 14 C 13.675307 3.615398 -21.228377 0
M  V30 15 C 12.178293 3.075453 -17.581662 0 CFG=1
M  V30 16 C 7.230295 4.519990 -15.163978 0 CFG=2
M  V30 17 O 14.031862 0.965101 -17.532562 0
M  V30 18 C 3.456733 7.470548 -17.765909 0
M  V30 19 C 10.285400 1.527489 -19.782859 0 CFG=1
M  V30 20 C 9.782676 0.596065 -20.953384 0
M  V30 21 C 12.440430 2.849263 -19.081002 0 CFG=2
M  V30 22 O 7.775400 8.510891 -12.655510 0
M  V30 23 O 8.080112 2.787363 -13.105946 0
M  V30 24 N 9.453001 6.915272 -12.384915 0 CHG=1
M  V30 25 C 11.845858 1.621386 -19.747706 0
M  V30 26 C 8.055472 2.798787 -19.361365 0
M  V30 27 C 10.032408 6.591746 -8.502674 0
M  V30 28 O 8.315839 4.748455 -14.269447 0
M  V30 29 P 13.805364 2.378209 -17.948797 0 CFG=1
M  V30 30 C 4.908724 7.782075 -17.510228 0 CFG=2
M  V30 31 C 15.124321 3.678456 -17.747038 0
M  V30 32 C 10.258942 0.877127 -22.398315 0
M  V30 33 C 4.513447 6.459022 -18.126892 0 CFG=2
M  V30 34 F 6.677837 7.646578 -12.284391 0
M  V30 35 C 5.403749 7.935116 -16.080099 0
M  V30 36 C 12.630748 0.656755 -20.278166 0
M  V30 37 C 12.842364 4.008982 -20.000399 0
M  V30 38 C 9.046520 5.798201 -11.770058 0
M  V30 39 C 12.201307 4.434973 -16.880149 0
M  V30 40 C 7.712396 4.156399 -16.594633 0 CFG=2
M  V30 41 C 9.569025 4.480382 -12.244815 0
M  V30 42 C 7.707842 4.714678 -9.978725 0
M  V30 43 C 8.451012 -0.298900 -17.045323 0
M  V30 44 C 8.282343 2.731490 -16.755457 0
M  V30 45 O 8.679882 5.077357 -17.064090 0
M  V30 46 C 6.575305 6.997830 -15.761151 0
M  V30 47 C 6.200713 5.674176 -15.069472 0
M  V30 48 C 9.508230 5.201297 -8.111618 0
M  V30 49 C 8.991226 8.245929 -12.014265 0
M  V30 50 H 13.333616 5.751662 -15.613502 0
M  V30 51 H 13.775469 4.074852 -15.418781 0
M  V30 52 H 14.428698 5.734708 -17.868676 0
M  V30 53 H 7.375878 5.590211 -8.036856 0
M  V30 54 H 7.775549 3.942760 -7.985010 0
M  V30 55 H 4.765921 7.057550 -20.184024 0
M  V30 56 H 5.878734 5.790933 -19.644511 0
M  V30 57 H 4.181705 5.400693 -19.968467 0
M  V30 58 H 9.992509 3.548347 -19.023346 0
M  V30 59 H 6.785680 1.810366 -17.967245 0
M  V30 60 H 9.867179 -1.425494 -17.685898 0
M  V30 61 H 8.058397 0.113301 -19.070568 0
M  V30 62 H 8.807259 3.393204 -21.790507 0
M  V30 63 H 9.451039 4.769572 -20.927359 0
M  V30 64 H 10.543033 3.577452 -21.625885 0
M  V30 65 H 15.788267 5.189248 -15.519561 0
M  V30 66 H 7.815667 6.779175 -10.442116 0
M  V30 67 H 13.973904 4.502879 -21.786925 0
M  V30 68 H 14.583935 3.084590 -20.943779 0
M  V30 69 H 13.107806 2.980309 -21.907957 0
M  V30 70 H 11.531972 2.353989 -17.090524 0
M  V30 71 H 6.666880 3.653307 -14.815659 0
M  V30 72 H 2.839476 7.265733 -16.895004 0
M  V30 73 H 2.975393 8.026559 -18.565243 0
M  V30 74 H 10.045155 -0.433314 -20.707971 0
M  V30 75 H 8.696471 0.589384 -21.010416 0
M  V30 76 H 7.614447 3.792294 -19.286428 0
M  V30 77 H 7.490488 2.305354 -20.153328 0
M  V30 78 H 10.934388 6.829109 -7.938957 0
M  V30 79 H 10.302626 6.649924 -9.555136 0
M  V30 80 H 9.294375 7.366309 -8.287384 0
M  V30 81 H 5.375268 8.474710 -18.204387 0
M  V30 82 H 15.632979 3.846658 -18.696456 0
M  V30 83 H 15.846332 3.200823 -17.089478 0
M  V30 84 H 10.109984 -0.009941 -23.014630 0
M  V30 85 H 9.686617 1.670207 -22.873656 0
M  V30 86 H 11.310133 1.147393 -22.472299 0
M  V30 87 H 4.575972 5.590122 -17.486762 0
M  V30 88 H 4.587916 7.826471 -15.370086 0
M  V30 89 H 5.741866 8.966485 -15.985668 0
M  V30 90 H 13.706213 0.736579 -20.246698 0
M  V30 91 H 12.209717 -0.218701 -20.746181 0
M  V30 92 H 11.953279 4.550209 -20.306675 0
M  V30 93 H 13.402387 4.749969 -19.447108 0
M  V30 94 H 11.929413 5.208187 -17.598758 0
M  V30 95 H 11.398210 4.431611 -16.143790 0
M  V30 96 H 6.838918 4.246711 -17.238892 0
M  V30 97 H 9.775426 3.790430 -11.429192 0
M  V30 98 H 10.514415 4.661353 -12.746895 0
M  V30 99 H 6.628351 4.631336 -10.105472 0
M  V30 100 H 8.128189 3.810248 -10.385030 0
M  V30 101 H 7.409435 -0.434588 -16.752964 0
M  V30 102 H 8.975417 0.091479 -16.179208 0
M  V30 103 H 7.934177 2.133625 -15.913225 0
M  V30 104 H 9.366706 2.747900 -16.662878 0
M  V30 105 H 9.411741 5.067454 -16.466292 0
M  V30 106 H 7.318676 7.514316 -15.153810 0
M  V30 107 H 7.031879 6.790222 -16.720986 0
M  V30 108 H 5.277026 5.312916 -15.496814 0
M  V30 109 H 5.959613 5.864036 -14.023533 0
M  V30 110 H 9.568303 5.190200 -7.026663 0
M  V30 111 H 10.175532 4.423359 -8.481137 0
M  V30 112 H 8.907403 8.369125 -10.934031 0
M  V30 113 H 9.723081 8.955044 -12.384706 0
M  V30 114 H 10.102888 6.844327 -13.155139 0
M  V30 END ATOM
M  V30 BEGIN BOND
M  V30 1 1 2 1
M  V30 2 1 10 7
M  V30 3 1 10 8
M  V30 4 1 11 5
M  V30 5 1 12 2
M  V30 6 1 19 5
M  V30 7 1 19 7
M  V30 8 1 19 20 CFG=3
M  V30 9 1 21 15
M  V30 10 2 23 6
M  V30 11 1 25 19
M  V30 12 1 25 21
M  V30 13 1 26 5
M  V30 14 1 26 8
M  V30 15 1 28 6
M  V30 16 1 28 16
M  V30 17 1 29 15
M  V30 18 2 29 17
M  V30 19 1 29 21
M  V30 20 1 30 18
M  V30 21 1 31 2
M  V30 22 1 29 31 CFG=3
M  V30 23 1 32 20
M  V30 24 1 33 4
M  V30 25 1 33 18
M  V30 26 1 33 30
M  V30 27 1 34 22
M  V30 28 1 35 30
M  V30 29 2 36 25
M  V30 30 1 37 14
M  V30 31 1 21 37 CFG=3
M  V30 32 1 38 13
M  V30 33 2 38 24
M  V30 34 1 39 1
M  V30 35 1 39 15
M  V30 36 1 40 16
M  V30 37 1 41 6
M  V30 38 1 41 38
M  V30 39 1 42 3
M  V30 40 1 42 13
M  V30 41 1 43 9
M  V30 42 1 43 10
M  V30 43 1 44 8
M  V30 44 1 44 40
M  V30 45 1 45 40
M  V30 46 1 46 35
M  V30 47 1 47 16
M  V30 48 1 47 46
M  V30 49 1 48 3
M  V30 50 1 48 27
M  V30 51 1 49 22
M  V30 52 1 49 24
M  V30 53 1 50 1
M  V30 54 1 51 1
M  V30 55 1 2 52 CFG=3
M  V30 56 1 53 3
M  V30 57 1 54 3
M  V30 58 1 55 4
M  V30 59 1 56 4
M  V30 60 1 57 4
M  V30 61 1 5 58 CFG=1
M  V30 62 1 8 59 CFG=1
M  V30 63 1 60 9
M  V30 64 1 10 61 CFG=3
M  V30 65 1 62 11
M  V30 66 1 63 11
M  V30 67 1 64 11
M  V30 68 1 65 12
M  V30 69 1 66 13
M  V30 70 1 67 14
M  V30 71 1 68 14
M  V30 72 1 69 14
M  V30 73 1 15 70 CFG=1
M  V30 74 1 16 71 CFG=1
M  V30 75 1 72 18
M  V30 76 1 73 18
M  V30 77 1 74 20
M  V30 78 1 75 20
M  V30 79 1 76 26
M  V30 80 1 77 26
M  V30 81 1 78 27
M  V30 82 1 79 27
M  V30 83 1 80 27
M  V30 84 1 30 81 CFG=3
M  V30 85 1 82 31
M  V30 86 1 83 31
M  V30 87 1 84 32
M  V30 88 1 85 32
M  V30 89 1 86 32
M  V30 90 1 33 87 CFG=1
M  V30 91 1 88 35
M  V30 92 1 89 35
M  V30 93 1 90 36
M  V30 94 1 91 36
M  V30 95 1 92 37
M  V30 96 1 93 37
M  V30 97 1 94 39
M  V30 98 1 95 39
M  V30 99 1 40 96 CFG=3
M  V30 100 1 97 41
M  V30 101 1 98 41
M  V30 102 1 99 42
M  V30 103 1 100 42
M  V30 104 1 101 43
M  V30 105 1 102 43
M  V30 106 1 103 44
M  V30 107 1 104 44
M  V30 108 1 105 45
M  V30 109 1 106 46
M  V30 110 1 107 46
M  V30 111 1 108 47
M  V30 112 1 109 47
M  V30 113 1 110 48
M  V30 114 1 111 48
M  V30 115 1 112 49
M  V30 116 1 113 49
M  V30 117 1 114 24
M  V30 END BOND
M  V30 END CTAB
M  END
>  <i_epik_Tot_Q>  (1) 
1

>  <i_epik_Tot_abs_Q>  (1) 
1

>  <i_i_glide_confnum>  (1) 
5493

>  <i_i_glide_lignum>  (1) 
153

>  <i_i_glide_posenum>  (1) 
231

>  <i_i_glide_rotatable_bonds>  (1) 
25

>  <i_lp_mmshare_version>  (1) 
72125

>  <i_m_source_file_index>  (1) 
87

>  <i_f3d_flags>  (1) 
0

>  <num_sample>  (1) 
100

>  <b_lp_Chiralities_Consistent>  (1) 
1

>  <r_epik_Charging_Adjusted_Penalty>  (1) 
0.16001273794586685

>  <r_epik_Ionization_Penalty>  (1) 
0.080843455150849161

>  <r_epik_Ionization_Penalty_Charging>  (1) 
0.080842825825004877

>  <r_epik_Ionization_Penalty_Neutral>  (1) 
6.2932584428919515e-07

>  <r_epik_State_Penalty>  (1) 
0.079169912120861954

>  <r_glide_ring_energy>  (1) 
0

>  <r_i_docking_score>  (1) 
-4.4212124504720043

>  <r_i_glide_ecoul>  (1) 
-4.2885797055050174

>  <r_i_glide_eff_state_penalty>  (1) 
0.079169912120861954

>  <r_i_glide_einternal>  (1) 
31.259513323872167

>  <r_i_glide_emodel>  (1) 
-29.091216464541631

>  <r_i_glide_emodel_strain>  (1) 
5.3747524193596803

>  <r_i_glide_energy>  (1) 
-38.483917978557237

>  <r_i_glide_erotb>  (1) 
0.57386026422142977

>  <r_i_glide_esite>  (1) 
-0.24117074222125226

>  <r_i_glide_evdw>  (1) 
-34.195338273052222

>  <r_i_glide_gscore>  (1) 
-4.5003823625928661

>  <r_i_glide_gscore_strain>  (1) 
0.34368810483992007

>  <r_i_glide_hbond>  (1) 
-0.20000000000000001

>  <r_i_glide_ligand_efficiency>  (1) 
-0.090228825519836825

>  <r_i_glide_ligand_efficiency_ln>  (1) 
-0.90379698783694362

>  <r_i_glide_ligand_efficiency_sa>  (1) 
-0.33017485643340533

>  <r_i_glide_lipo>  (1) 
-1.9914808248548832

>  <r_i_glide_metal>  (1) 
-0

>  <r_i_glide_rewards>  (1) 
-0.63222529509971581

>  <r_lp_Energy>  (1) 
50.891874999999999

>  <s_epik_Chemistry_Notes>  (1) 
This compound has an ester and may undergo hydrolysis at high or low pH. This compound has an imine and may undergo hydrolysis. This compound contains an acetal/aminal-like group ( X-CH(R)-Y where X, Y are N, S, or O) that may be acid/base labile, releasing an aldehyde.

>  <s_epik_cmdline>  (1) 
J2VwaWtfcHl0aG9uJywgJy1waHQnLCAnMS4wJywgJy1waCcsICc3LjQnLCAnLXRuJywgJzgnLCAnLW1hJywgJzUwMCcsICctaW1hZScsICc8aW5maWxlLm1hZT4nLCAnLW9tYWUnLCAnPG91dGZpbGUubWFlPic=

>  <s_epik_input>  (1) 
W09IXVtDQEBIXShbQ0gyXTEpW0NIMl1bQ0gyXVtDQEhdKFAxMj1PKVtDQEBdMihbQ0gyXVtDSDNdKUMoPVtDSDJdKVtDQF0zKFtDSDJdW0NIM10pW0NAQEhdKFtDSDNdKVtDSDJdW0NAQEhdKFtDQEBIXShPMylbQ0gyXVtPSF0pW0NIMl1bQ0BIXShbT0hdKVtDQEhdKFtDSDJdW0NIMl1bQ0gyXVtDQEBIXTRbQ0gyXVtDQEhdNFtDSDNdKU9DKD1PKVtDSDJdQyg9TlxbQ0gyXU9GKVxbTkhdW0NIMl1bQ0gyXVtDSDJdW0NIM10=

>  <s_glide_docking_method>  (1) 
confgen

>  <s_i_glide_gridfile>  (1) 
gpcr_drd2_6luq_protein_autoprepared_prepared

>  <s_lp_Force_Field>  (1) 
S-OPLS

>  <s_lp_Variant>  (1) 
DiffSBDD_86-1

>  <s_m_source_file>  (1) 
generated_generic_title2_ligand_DiffSBDD_2026-06-23_prepared.sdf

>  <GenAI_Model>  (1) 
DiffSBDD

>  <Protein>  (1) 
generic_title2

$$$$
DiffSBDD_80
     RDKit          3D

  0  0  0  0  0  0  0  0  0  0999 V3000
M  V30 BEGIN CTAB
M  V30 COUNTS 81 87 0 0 1
M  V30 BEGIN ATOM
M  V30 1 C 6.336703 5.129838 -13.930076 0
M  V30 2 C 4.531673 9.347626 -22.832684 0
M  V30 3 C 7.367873 5.718860 -18.126567 0
M  V30 4 O 6.399727 10.859087 -22.642695 0
M  V30 5 N 9.375418 7.831437 -10.223264 0 CHG=1
M  V30 6 C 9.240815 4.344797 -19.649999 0
M  V30 7 C 8.184435 4.753602 -17.500400 0
M  V30 8 C 5.818295 9.874462 -22.192174 0
M  V30 9 C 8.038721 3.113266 -15.590208 0
M  V30 10 C 8.574214 5.179064 -9.356380 0 CFG=2
M  V30 11 C 9.554159 7.558749 -8.781978 0 CFG=2
M  V30 12 C 6.213960 7.601734 -21.034247 0 CFG=1
M  V30 13 C 7.315425 5.394883 -11.594270 0 CFG=2
M  V30 14 O 7.159747 7.242430 -13.183011 0
M  V30 15 C 4.812709 7.183629 -21.514491 0
M  V30 16 C 6.335305 9.142979 -20.947302 0
M  V30 17 N 6.407549 6.497458 -17.635975 0
M  V30 18 O 4.975422 5.190220 -11.109493 0
M  V30 19 C 9.598630 6.697824 -11.145530 0
M  V30 20 C 9.138358 4.065917 -18.274322 0
M  V30 21 O 9.375398 4.331342 -11.357052 0
M  V30 22 C 6.557483 5.173487 -15.462100 0 CFG=2
M  V30 23 C 6.205653 7.749400 -15.449454 0
M  V30 24 C 7.905303 4.597276 -15.996873 0 CFG=2
M  V30 25 C 8.393951 5.312573 -20.243743 0
M  V30 26 O 10.959830 7.599007 -8.633276 0
M  V30 27 C 6.519382 6.951610 -19.691899 0
M  V30 28 C 8.692515 5.464114 -10.852550 0 CFG=1
M  V30 29 C 7.468447 5.972701 -19.396308 0
M  V30 30 N 5.775394 7.353114 -18.626132 0
M  V30 31 C 4.488006 6.314737 -16.385700 0
M  V30 32 C 4.468346 7.810296 -22.869913 0
M  V30 33 C 8.964184 6.235815 -8.339000 0 CFG=2
M  V30 34 C 7.373990 5.840589 -13.077334 0 CFG=2
M  V30 35 C 5.994906 6.421300 -16.233469 0 CFG=1
M  V30 36 C 8.500443 5.598536 -21.730697 0
M  V30 37 O 9.796688 5.113586 -8.620626 0
M  V30 38 C 6.092797 5.990229 -10.871396 0
M  V30 39 C 7.382708 7.764767 -14.481430 0
M  V30 40 H 6.303282 4.083266 -13.619624 0
M  V30 41 H 5.349007 5.511010 -13.673694 0
M  V30 42 H 3.691097 9.733284 -22.255895 0
M  V30 43 H 5.769460 9.519801 -20.095460 0
M  V30 44 H 4.436046 9.752292 -23.841739 0
M  V30 45 H 9.922557 8.636841 -10.485015 0
M  V30 46 H 9.965564 3.818006 -20.252067 0
M  V30 47 H 8.943472 2.652993 -15.984823 0
M  V30 48 H 8.074885 2.992139 -14.508206 0
M  V30 49 H 7.200907 2.525742 -15.965993 0
M  V30 50 H 7.845653 4.425721 -9.059812 0
M  V30 51 H 9.102899 8.371169 -8.208339 0
M  V30 52 H 6.893374 7.345527 -21.824280 0
M  V30 53 H 7.104590 4.321724 -11.598685 0
M  V30 54 H 4.744490 6.096751 -21.574770 0
M  V30 55 H 4.078618 7.508715 -20.779018 0
M  V30 56 H 7.374128 9.427246 -20.784957 0
M  V30 57 H 4.603140 4.971513 -10.264571 0
M  V30 58 H 10.644072 6.417499 -11.063950 0
M  V30 59 H 9.488310 7.066291 -12.162875 0
M  V30 60 H 9.785714 3.330119 -17.823190 0
M  V30 61 H 9.514081 4.421833 -12.287711 0
M  V30 62 H 5.845707 4.390217 -15.585020 0
M  V30 63 H 5.326771 7.994941 -14.852588 0
M  V30 64 H 6.312453 8.577809 -16.153479 0
M  V30 65 H 8.736324 5.131877 -15.539365 0
M  V30 66 H 11.232487 6.754392 -8.298628 0
M  V30 67 H 4.175431 5.990203 -15.434461 0
M  V30 68 H 3.995676 7.264131 -16.614557 0
M  V30 69 H 4.175641 5.590200 -17.132899 0
M  V30 70 H 3.465048 7.500719 -23.164953 0
M  V30 71 H 5.144433 7.428587 -23.636031 0
M  V30 72 H 8.527583 6.203426 -7.343160 0
M  V30 73 H 8.360248 5.577816 -13.452283 0
M  V30 74 H 9.236876 4.931116 -22.181698 0
M  V30 75 H 7.562949 5.394922 -22.248118 0
M  V30 76 H 8.858676 6.610026 -21.924742 0
M  V30 77 H 5.859927 7.008170 -11.185062 0
M  V30 78 H 6.196252 5.990227 -9.795014 0
M  V30 79 H 7.735927 8.783761 -14.355782 0
M  V30 80 H 8.175398 7.190263 -14.930907 0
M  V30 81 H 8.377499 8.048752 -10.272608 0
M  V30 END ATOM
M  V30 BEGIN BOND
M  V30 1 2 7 3
M  V30 2 1 8 2
M  V30 3 2 8 4
M  V30 4 1 11 5
M  V30 5 1 15 12
M  V30 6 1 16 8
M  V30 7 1 16 12
M  V30 8 1 17 3
M  V30 9 1 19 5
M  V30 10 2 20 6
M  V30 11 1 20 7
M  V30 12 1 22 1
M  V30 13 1 24 7
M  V30 14 1 24 9
M  V30 15 1 24 22
M  V30 16 1 25 6
M  V30 17 1 26 11
M  V30 18 1 27 12
M  V30 19 1 28 10
M  V30 20 1 28 13
M  V30 21 1 28 19
M  V30 22 1 28 21 CFG=3
M  V30 23 1 29 3
M  V30 24 2 29 25
M  V30 25 1 29 27
M  V30 26 1 30 17
M  V30 27 2 30 27
M  V30 28 1 32 2
M  V30 29 1 32 15
M  V30 30 1 33 10
M  V30 31 1 33 11
M  V30 32 1 34 1
M  V30 33 1 34 13
M  V30 34 1 34 14
M  V30 35 1 35 17
M  V30 36 1 35 22
M  V30 37 1 35 23
M  V30 38 1 35 31 CFG=3
M  V30 39 1 36 25
M  V30 40 1 37 10
M  V30 41 1 37 33
M  V30 42 1 38 13
M  V30 43 1 38 18
M  V30 44 1 39 14
M  V30 45 1 39 23
M  V30 46 1 40 1
M  V30 47 1 41 1
M  V30 48 1 42 2
M  V30 49 1 43 16
M  V30 50 1 44 2
M  V30 51 1 45 5
M  V30 52 1 46 6
M  V30 53 1 47 9
M  V30 54 1 48 9
M  V30 55 1 49 9
M  V30 56 1 10 50 CFG=3
M  V30 57 1 11 51 CFG=1
M  V30 58 1 12 52 CFG=3
M  V30 59 1 13 53 CFG=3
M  V30 60 1 54 15
M  V30 61 1 55 15
M  V30 62 1 56 16
M  V30 63 1 57 18
M  V30 64 1 58 19
M  V30 65 1 59 19
M  V30 66 1 60 20
M  V30 67 1 61 21
M  V30 68 1 22 62 CFG=3
M  V30 69 1 63 23
M  V30 70 1 64 23
M  V30 71 1 24 65 CFG=1
M  V30 72 1 66 26
M  V30 73 1 67 31
M  V30 74 1 68 31
M  V30 75 1 69 31
M  V30 76 1 70 32
M  V30 77 1 71 32
M  V30 78 1 33 72 CFG=1
M  V30 79 1 34 73 CFG=3
M  V30 80 1 74 36
M  V30 81 1 75 36
M  V30 82 1 76 36
M  V30 83 1 77 38
M  V30 84 1 78 38
M  V30 85 1 79 39
M  V30 86 1 80 39
M  V30 87 1 81 5
M  V30 END BOND
M  V30 END CTAB
M  END
>  <i_epik_Tot_Q>  (1) 
1

>  <i_epik_Tot_abs_Q>  (1) 
1

>  <i_i_glide_confnum>  (1) 
2

>  <i_i_glide_lignum>  (1) 
142

>  <i_i_glide_posenum>  (1) 
49

>  <i_i_glide_rotatable_bonds>  (1) 
7

>  <i_lp_mmshare_version>  (1) 
72125

>  <i_m_source_file_index>  (1) 
81

>  <i_f3d_flags>  (1) 
0

>  <num_sample>  (1) 
100

>  <b_lp_Chiralities_Consistent>  (1) 
1

>  <r_epik_Charging_Adjusted_Penalty>  (1) 
1.2255087210735522

>  <r_epik_Ionization_Penalty>  (1) 
1.2155625160302366

>  <r_epik_Ionization_Penalty_Charging>  (1) 
0.066233371384416553

>  <r_epik_Ionization_Penalty_Neutral>  (1) 
1.14932914464582

>  <r_epik_State_Penalty>  (1) 
1.1592753496891357

>  <r_glide_ring_energy>  (1) 
0.92014261801324104

>  <r_i_docking_score>  (1) 
-4.4203610624448579

>  <r_i_glide_ecoul>  (1) 
-10.312495488094477

>  <r_i_glide_eff_state_penalty>  (1) 
1.1592753496891357

>  <r_i_glide_einternal>  (1) 
2.544789190643991

>  <r_i_glide_emodel>  (1) 
-30.287430689040669

>  <r_i_glide_emodel_strain>  (1) 
4.3535377663665429

>  <r_i_glide_energy>  (1) 
-28.614742759941802

>  <r_i_glide_erotb>  (1) 
0.2829020549976658

>  <r_i_glide_esite>  (1) 
-0.20000000000000001

>  <r_i_glide_evdw>  (1) 
-18.302247271847325

>  <r_i_glide_gscore>  (1) 
-5.5796364121339934

>  <r_i_glide_gscore_strain>  (1) 
0.088384441591635721

>  <r_i_glide_hbond>  (1) 
-0.36876045317912576

>  <r_i_glide_ligand_efficiency>  (1) 
-0.11334259134473995

>  <r_i_glide_ligand_efficiency_ln>  (1) 
-0.94785089119887078

>  <r_i_glide_ligand_efficiency_sa>  (1) 
-0.38436869274916063

>  <r_i_glide_lipo>  (1) 
-1.9420887080290379

>  <r_i_glide_metal>  (1) 
-0

>  <r_i_glide_rewards>  (1) 
-0.97808706070859341

>  <r_lp_Energy>  (1) 
35.636825000000002

>  <r_lp_tautomer_probability>  (1) 
0.99999997999999979

>  <s_epik_Chemistry_Notes>  (1) 
This compound contains an acetal/aminal-like group ( X-CH(R)-Y where X, Y are N, S, or O) that may be acid/base labile, releasing an aldehyde.

>  <s_epik_cmdline>  (1) 
J2VwaWtfcHl0aG9uJywgJy1waHQnLCAnMS4wJywgJy1waCcsICc3LjQnLCAnLXRuJywgJzgnLCAnLW1hJywgJzUwMCcsICctaW1hZScsICc8aW5maWxlLm1hZT4nLCAnLW9tYWUnLCAnPG91dGZpbGUubWFlPic=

>  <s_epik_input>  (1) 
W0NASF0xMltDQEBIXShPMilbQ0BASF0oW09IXSlbTkhdW0NIMl1bQ0BdMShbT0hdKVtDQEBIXShbQ0gyXVtPSF0pW0NASF0oT1tDSDJdW0NIMl0zKVtDSDJdW0NAQEhdNFtDQEBIXShbQ0gzXSljKGM1bjZbQ0BdMzRbQ0gzXSlbY0hdW2NIXWMoW0NIM10pYzVjKG42KVtDQEhdKFtDSDJdW0NIMl1bQ0gyXTcpW0NIXT1DN1tPSF0=

>  <s_glide_docking_method>  (1) 
confgen

>  <s_i_glide_gridfile>  (1) 
gpcr_drd2_6luq_protein_autoprepared_prepared

>  <s_lp_Force_Field>  (1) 
S-OPLS

>  <s_lp_Variant>  (1) 
DiffSBDD_80-4

>  <s_m_source_file>  (1) 
generated_generic_title2_ligand_DiffSBDD_2026-06-23_prepared.sdf

>  <GenAI_Model>  (1) 
DiffSBDD

>  <Protein>  (1) 
generic_title2

$$$$
DiffSBDD_15
     RDKit          3D

  0  0  0  0  0  0  0  0  0  0999 V3000
M  V30 BEGIN CTAB
M  V30 COUNTS 79 80 0 0 1
M  V30 BEGIN ATOM
M  V30 1 F 7.295595 -2.820096 -21.005122 0
M  V30 2 C 9.241081 5.988705 -12.786371 0
M  V30 3 C 7.061511 0.510659 -19.467510 0
M  V30 4 C 6.831066 -0.853863 -19.735121 0
M  V30 5 C 6.488636 5.417728 -18.183837 0 CFG=1
M  V30 6 N 7.468579 3.451500 -19.305190 0
M  V30 7 O 11.430530 9.360171 -6.683825 0
M  V30 8 C 8.704251 0.556461 -21.305602 0
M  V30 9 F 10.467173 5.590277 -12.385072 0
M  V30 10 C 12.069076 8.790142 -7.566354 0
M  V30 11 C 7.581375 4.788297 -19.068057 0
M  V30 12 O 9.293617 3.251775 -20.660191 0
M  V30 13 C 7.096201 5.962180 -16.854624 0
M  V30 14 C 8.648462 -0.941047 -16.821021 0
M  V30 15 C 7.652003 -0.037042 -16.053459 0 CFG=1
M  V30 16 C 9.247598 7.682693 -10.899537 0
M  V30 17 C 5.068358 6.076045 -20.272038 0
M  V30 18 C 8.016229 1.250339 -20.280374 0
M  V30 19 O 9.589325 -0.206833 -17.584851 0
M  V30 20 O 8.174702 0.200538 -14.760972 0
M  V30 21 C 11.076147 6.492587 -4.925822 0
M  V30 22 C 8.577955 7.017027 -12.092487 0
M  V30 23 C 9.505073 6.714839 -9.725020 0
M  V30 24 C 6.723129 5.191002 -15.573991 0
M  V30 25 C 8.457757 -0.807951 -21.543786 0
M  V30 26 O 4.627876 6.958348 -18.120699 0
M  V30 27 C 6.694088 6.839158 -13.639015 0
M  V30 28 C 9.923459 6.637544 -5.932287 0
M  V30 29 O 8.486212 5.494732 -19.521228 0
M  V30 30 C 10.297061 6.252570 -7.377743 0
M  V30 31 C 5.698852 6.523635 -18.940323 0 CFG=1
M  V30 32 C 7.524405 -1.507758 -20.765367 0
M  V30 33 C 8.323702 2.748684 -20.086798 0
M  V30 34 C 10.071415 7.359578 -8.441508 0 CFG=1
M  V30 35 S 6.175388 1.255046 -18.117349 0
M  V30 36 C 7.300505 7.437199 -12.514217 0
M  V30 37 C 7.304482 1.329930 -16.689023 0
M  V30 38 C 8.634940 5.385011 -13.909168 0
M  V30 39 C 7.363534 5.816423 -14.342625 0
M  V30 40 C 11.363080 8.153266 -8.760720 0
M  V30 41 H 6.120402 -1.404615 -19.135651 0
M  V30 42 H 5.775714 4.624515 -17.985029 0
M  V30 43 H 6.694418 2.953326 -18.884053 0
M  V30 44 H 9.422388 1.080757 -21.919831 0
M  V30 45 H 13.155829 8.704795 -7.563160 0
M  V30 46 H 8.185046 5.990217 -16.919825 0
M  V30 47 H 6.797444 7.000895 -16.713209 0
M  V30 48 H 8.102020 -1.594733 -17.498606 0
M  V30 49 H 9.176751 -1.608810 -16.137534 0
M  V30 50 H 6.731381 -0.601497 -15.895626 0
M  V30 51 H 10.191337 8.091966 -11.258148 0
M  V30 52 H 8.656156 8.540512 -10.578642 0
M  V30 53 H 5.824127 5.788201 -21.002638 0
M  V30 54 H 4.399106 5.226462 -20.129722 0
M  V30 55 H 4.491970 6.884432 -20.722845 0
M  V30 56 H 10.193852 -0.812196 -17.985041 0
M  V30 57 H 7.477810 0.515288 -14.205132 0
M  V30 58 H 10.694093 6.436252 -3.906996 0
M  V30 59 H 11.657523 5.590302 -5.099078 0
M  V30 60 H 11.763218 7.335790 -4.977864 0
M  V30 61 H 8.571219 6.214665 -9.476490 0
M  V30 62 H 10.174580 5.920826 -10.042939 0
M  V30 63 H 5.640918 5.190305 -15.441829 0
M  V30 64 H 7.039577 4.153160 -15.654060 0
M  V30 65 H 8.988159 -1.319680 -22.332926 0
M  V30 66 H 4.293638 7.775731 -18.461108 0
M  V30 67 H 5.719567 7.171564 -13.965415 0
M  V30 68 H 9.518858 7.648291 -5.881261 0
M  V30 69 H 9.105519 5.990384 -5.614004 0
M  V30 70 H 9.691725 5.380579 -7.629768 0
M  V30 71 H 11.322605 5.887460 -7.432200 0
M  V30 72 H 6.353602 7.376114 -19.126857 0
M  V30 73 H 9.311296 8.055883 -8.082906 0
M  V30 74 H 6.788448 8.225653 -11.981183 0
M  V30 75 H 6.781606 1.926680 -15.942956 0
M  V30 76 H 8.203624 1.890629 -16.946611 0
M  V30 77 H 9.152478 4.602187 -14.444015 0
M  V30 78 H 12.078486 7.500264 -9.259489 0
M  V30 79 H 11.142056 8.960870 -9.457427 0
M  V30 END ATOM
M  V30 BEGIN BOND
M  V30 1 1 4 3
M  V30 2 1 9 2
M  V30 3 2 10 7
M  V30 4 1 11 5
M  V30 5 1 11 6
M  V30 6 1 13 5
M  V30 7 1 15 14
M  V30 8 2 18 3
M  V30 9 1 18 8
M  V30 10 1 19 14
M  V30 11 1 20 15
M  V30 12 2 22 2
M  V30 13 1 22 16
M  V30 14 1 23 16
M  V30 15 1 24 13
M  V30 16 2 25 8
M  V30 17 1 28 21
M  V30 18 2 29 11
M  V30 19 1 30 28
M  V30 20 1 31 5
M  V30 21 1 31 17
M  V30 22 1 31 26
M  V30 23 1 32 1
M  V30 24 2 32 4
M  V30 25 1 32 25
M  V30 26 1 33 6
M  V30 27 2 33 12
M  V30 28 1 33 18
M  V30 29 1 34 23
M  V30 30 1 34 30
M  V30 31 1 35 3
M  V30 32 1 36 22
M  V30 33 2 36 27
M  V30 34 1 37 15
M  V30 35 1 37 35
M  V30 36 1 38 2
M  V30 37 1 39 24
M  V30 38 1 39 27
M  V30 39 2 39 38
M  V30 40 1 40 10
M  V30 41 1 40 34
M  V30 42 1 41 4
M  V30 43 1 5 42 CFG=1
M  V30 44 1 43 6
M  V30 45 1 44 8
M  V30 46 1 45 10
M  V30 47 1 46 13
M  V30 48 1 47 13
M  V30 49 1 48 14
M  V30 50 1 49 14
M  V30 51 1 15 50 CFG=1
M  V30 52 1 51 16
M  V30 53 1 52 16
M  V30 54 1 53 17
M  V30 55 1 54 17
M  V30 56 1 55 17
M  V30 57 1 56 19
M  V30 58 1 57 20
M  V30 59 1 58 21
M  V30 60 1 59 21
M  V30 61 1 60 21
M  V30 62 1 61 23
M  V30 63 1 62 23
M  V30 64 1 63 24
M  V30 65 1 64 24
M  V30 66 1 65 25
M  V30 67 1 66 26
M  V30 68 1 67 27
M  V30 69 1 68 28
M  V30 70 1 69 28
M  V30 71 1 70 30
M  V30 72 1 71 30
M  V30 73 1 31 72 CFG=3
M  V30 74 1 34 73 CFG=1
M  V30 75 1 74 36
M  V30 76 1 75 37
M  V30 77 1 76 37
M  V30 78 1 77 38
M  V30 79 1 78 40
M  V30 80 1 79 40
M  V30 END BOND
M  V30 END CTAB
M  END
>  <i_epik_Tot_Q>  (1) 
0

>  <i_epik_Tot_abs_Q>  (1) 
0

>  <i_i_glide_confnum>  (1) 
4880

>  <i_i_glide_lignum>  (1) 
30

>  <i_i_glide_posenum>  (1) 
390

>  <i_i_glide_rotatable_bonds>  (1) 
22

>  <i_lp_mmshare_version>  (1) 
72125

>  <i_m_source_file_index>  (1) 
16

>  <i_f3d_flags>  (1) 
0

>  <num_sample>  (1) 
100

>  <b_lp_Chiralities_Consistent>  (1) 
1

>  <r_epik_Charging_Adjusted_Penalty>  (1) 
0

>  <r_epik_Ionization_Penalty>  (1) 
3.4355340850982391e-06

>  <r_epik_Ionization_Penalty_Charging>  (1) 
0

>  <r_epik_Ionization_Penalty_Neutral>  (1) 
3.4355340850982391e-06

>  <r_epik_State_Penalty>  (1) 
-0

>  <r_glide_ring_energy>  (1) 
0

>  <r_i_docking_score>  (1) 
-4.3982862377497147

>  <r_i_glide_ecoul>  (1) 
-1.048148141368163

>  <r_i_glide_eff_state_penalty>  (1) 
-0

>  <r_i_glide_einternal>  (1) 
18.789987548373958

>  <r_i_glide_emodel>  (1) 
-39.543860712723159

>  <r_i_glide_emodel_strain>  (1) 
1.5975627491137274

>  <r_i_glide_energy>  (1) 
-41.900363939323945

>  <r_i_glide_erotb>  (1) 
0.95789386429869372

>  <r_i_glide_esite>  (1) 
0

>  <r_i_glide_evdw>  (1) 
-40.852215797955779

>  <r_i_glide_gscore>  (1) 
-4.3982862377497147

>  <r_i_glide_gscore_strain>  (1) 
0

>  <r_i_glide_hbond>  (1) 
0

>  <r_i_glide_ligand_efficiency>  (1) 
-0.10995715594374286

>  <r_i_glide_ligand_efficiency_ln>  (1) 
-0.93802501872611377

>  <r_i_glide_ligand_efficiency_sa>  (1) 
-0.37604818365755788

>  <r_i_glide_lipo>  (1) 
-2.1410574776333604

>  <r_i_glide_metal>  (1) 
-0

>  <r_i_glide_rewards>  (1) 
-1.0152896133120348

>  <r_lp_Energy>  (1) 
37.492081999999996

>  <r_lp_tautomer_probability>  (1) 
1

>  <s_epik_cmdline>  (1) 
J2VwaWtfcHl0aG9uJywgJy1waHQnLCAnMS4wJywgJy1waCcsICc3LjQnLCAnLXRuJywgJzgnLCAnLW1hJywgJzUwMCcsICctaW1hZScsICc8aW5maWxlLm1hZT4nLCAnLW9tYWUnLCAnPG91dGZpbGUubWFlPic=

>  <s_epik_input>  (1) 
W09IXVtDSDJdW0NAQEhdKFtPSF0pW0NIMl1TYzFbY0hdYyhGKVtjSF1bY0hdYzFDKD1PKVtOSF1DKD1PKVtDQEhdKFtDQEBIXShbQ0gzXSlbT0hdKVtDSDJdW0NIMl1jKFtjSF0yKVtjSF1bY0hdYyhjMkYpW0NIMl1bQ0gyXVtDQEhdKFtDSDJdW0NIXT1PKVtDSDJdW0NIMl1bQ0gzXQ==

>  <s_glide_docking_method>  (1) 
confgen

>  <s_i_glide_gridfile>  (1) 
gpcr_drd2_6luq_protein_autoprepared_prepared

>  <s_lp_Force_Field>  (1) 
S-OPLS

>  <s_lp_Variant>  (1) 
DiffSBDD_15-1

>  <s_m_source_file>  (1) 
generated_generic_title2_ligand_DiffSBDD_2026-06-23_prepared.sdf

>  <GenAI_Model>  (1) 
DiffSBDD

>  <Protein>  (1) 
generic_title2

$$$$
DiffSBDD_43
     RDKit          3D

  0  0  0  0  0  0  0  0  0  0999 V3000
M  V30 BEGIN CTAB
M  V30 COUNTS 73 80 0 0 1
M  V30 BEGIN ATOM
M  V30 1 C 6.981095 6.355529 -18.162120 0 CFG=1
M  V30 2 C 5.739336 7.209316 -18.063181 0 CFG=2
M  V30 3 C 6.111617 6.174613 -15.847797 0 CFG=1
M  V30 4 C 6.755715 5.592166 -10.982717 0
M  V30 5 C 9.819251 5.904363 -19.373695 0
M  V30 6 C 9.766697 4.451635 -18.869481 0
M  V30 7 C 7.001139 5.470235 -16.895160 0
M  V30 8 S 13.643012 0.086286 -17.986505 0
M  V30 9 C 12.899309 2.822050 -18.135733 0 CFG=1
M  V30 10 C 13.915961 1.770445 -18.559909 0 CFG=1
M  V30 11 C 7.121116 3.805577 -12.910343 0
M  V30 12 C 14.489049 4.598858 -18.812334 0
M  V30 13 C 6.877059 6.695937 -14.612612 0
M  V30 14 C 13.069945 4.062155 -18.990900 0 CFG=2
M  V30 15 C 12.626295 0.448772 -20.536792 0
M  V30 16 C 5.992394 4.786176 -13.135089 0 CFG=1
M  V30 17 N 10.926999 3.982602 -18.229937 0
M  V30 18 C 6.335766 4.363088 -11.742910 0 CFG=2
M  V30 19 O 15.241783 2.285952 -18.421779 0
M  V30 20 C 8.659118 3.690887 -18.994082 0
M  V30 21 C 7.046883 6.673112 -12.040733 0
M  V30 22 C 7.153230 3.553621 -21.028768 0
M  V30 23 C 15.478328 3.472704 -19.189963 0
M  V30 24 C 11.395640 2.605740 -18.220212 0
M  V30 25 C 7.263478 5.729375 -19.568049 0 CFG=1
M  V30 26 C 8.555504 6.344213 -20.144259 0
M  V30 27 C 13.840655 0.736945 -19.675944 0 CFG=2
M  V30 28 C 5.331119 7.221439 -16.614861 0 CFG=2
M  V30 29 C 4.366177 6.741415 -17.664697 0
M  V30 30 F 8.126008 3.876411 -21.880429 0
M  V30 31 O 12.003851 4.882836 -18.545684 0
M  V30 32 F 7.120457 2.225571 -20.919785 0
M  V30 33 F 5.985608 3.951658 -21.534622 0
M  V30 34 C 6.217942 6.283849 -13.278595 0 CFG=1
M  V30 35 C 7.360676 4.175246 -19.627534 0 CFG=2
M  V30 36 H 7.772108 7.076981 -17.985026 0
M  V30 37 H 5.757368 8.132911 -18.634074 0
M  V30 38 H 5.376098 5.445324 -15.520524 0
M  V30 39 H 7.611702 5.390995 -10.338649 0
M  V30 40 H 5.921371 5.906729 -10.355603 0
M  V30 41 H 9.966959 6.550897 -18.508063 0
M  V30 42 H 10.668743 6.065073 -20.038975 0
M  V30 43 H 6.575674 4.487641 -17.072844 0
M  V30 44 H 8.020842 5.296016 -16.550661 0
M  V30 45 H 13.129368 3.079614 -17.098672 0
M  V30 46 H 8.141754 4.156194 -13.053692 0
M  V30 47 H 6.943768 2.767138 -13.183379 0
M  V30 48 H 14.645461 5.479237 -19.436423 0
M  V30 49 H 14.648461 4.907882 -17.777933 0
M  V30 50 H 7.896916 6.312115 -14.617621 0
M  V30 51 H 6.981853 7.780423 -14.660593 0
M  V30 52 H 12.896396 3.820154 -20.041839 0
M  V30 53 H 12.439649 1.278990 -21.218260 0
M  V30 54 H 12.803617 -0.448737 -21.129517 0
M  V30 55 H 11.735798 0.268416 -19.935894 0
M  V30 56 H 5.068199 4.395187 -13.555592 0
M  V30 57 H 5.663707 3.682290 -11.224807 0
M  V30 58 H 8.658794 2.680278 -18.613560 0
M  V30 59 H 8.111524 6.657413 -12.277593 0
M  V30 60 H 6.811849 7.677623 -11.686545 0
M  V30 61 H 15.392891 3.236222 -20.251396 0
M  V30 62 H 16.503381 3.804280 -19.024479 0
M  V30 63 H 11.001865 2.043299 -17.374053 0
M  V30 64 H 11.090366 2.131695 -19.149575 0
M  V30 65 H 6.441558 6.032118 -20.217510 0
M  V30 66 H 8.488106 7.432776 -20.152361 0
M  V30 67 H 8.660668 6.069446 -21.191842 0
M  V30 68 H 14.789046 0.397997 -20.089541 0
M  V30 69 H 5.122693 8.172668 -16.127526 0
M  V30 70 H 4.175632 5.678897 -17.640149 0
M  V30 71 H 3.515316 7.378998 -17.898555 0
M  V30 72 H 5.243157 6.765668 -13.199989 0
M  V30 73 H 6.539972 3.770620 -19.038076 0
M  V30 END ATOM
M  V30 BEGIN BOND
M  V30 1 1 2 1
M  V30 2 1 6 5
M  V30 3 1 7 1
M  V30 4 1 7 3
M  V30 5 1 10 8
M  V30 6 1 10 9
M  V30 7 1 13 3
M  V30 8 1 14 9
M  V30 9 1 14 12
M  V30 10 1 16 11
M  V30 11 1 17 6
M  V30 12 1 18 4
M  V30 13 1 18 11
M  V30 14 1 18 16
M  V30 15 1 10 19 CFG=1
M  V30 16 2 20 6
M  V30 17 1 21 4
M  V30 18 1 23 12
M  V30 19 1 23 19
M  V30 20 1 24 9
M  V30 21 1 24 17
M  V30 22 1 25 1
M  V30 23 1 26 5
M  V30 24 1 26 25
M  V30 25 1 27 8
M  V30 26 1 27 10
M  V30 27 1 27 15
M  V30 28 1 28 2
M  V30 29 1 28 3
M  V30 30 1 29 2
M  V30 31 1 29 28
M  V30 32 1 30 22
M  V30 33 1 31 14
M  V30 34 1 31 17
M  V30 35 1 32 22
M  V30 36 1 33 22
M  V30 37 1 34 13
M  V30 38 1 34 16
M  V30 39 1 34 21
M  V30 40 1 35 20
M  V30 41 1 35 22
M  V30 42 1 35 25
M  V30 43 1 1 36 CFG=1
M  V30 44 1 2 37 CFG=3
M  V30 45 1 3 38 CFG=1
M  V30 46 1 39 4
M  V30 47 1 40 4
M  V30 48 1 41 5
M  V30 49 1 42 5
M  V30 50 1 43 7
M  V30 51 1 44 7
M  V30 52 1 9 45 CFG=1
M  V30 53 1 46 11
M  V30 54 1 47 11
M  V30 55 1 48 12
M  V30 56 1 49 12
M  V30 57 1 50 13
M  V30 58 1 51 13
M  V30 59 1 14 52 CFG=3
M  V30 60 1 53 15
M  V30 61 1 54 15
M  V30 62 1 55 15
M  V30 63 1 16 56 CFG=3
M  V30 64 1 18 57 CFG=1
M  V30 65 1 58 20
M  V30 66 1 59 21
M  V30 67 1 60 21
M  V30 68 1 61 23
M  V30 69 1 62 23
M  V30 70 1 63 24
M  V30 71 1 64 24
M  V30 72 1 25 65 CFG=3
M  V30 73 1 66 26
M  V30 74 1 67 26
M  V30 75 1 27 68 CFG=3
M  V30 76 1 28 69 CFG=1
M  V30 77 1 70 29
M  V30 78 1 71 29
M  V30 79 1 34 72 CFG=1
M  V30 80 1 35 73 CFG=1
M  V30 END BOND
M  V30 END CTAB
M  END
>  <i_epik_Tot_Q>  (1) 
0

>  <i_epik_Tot_abs_Q>  (1) 
0

>  <i_i_glide_confnum>  (1) 
276

>  <i_i_glide_lignum>  (1) 
69

>  <i_i_glide_posenum>  (1) 
336

>  <i_i_glide_rotatable_bonds>  (1) 
5

>  <i_lp_mmshare_version>  (1) 
72125

>  <i_m_source_file_index>  (1) 
44

>  <i_f3d_flags>  (1) 
0

>  <num_sample>  (1) 
100

>  <b_lp_Chiralities_Consistent>  (1) 
1

>  <r_epik_Charging_Adjusted_Penalty>  (1) 
0

>  <r_epik_Ionization_Penalty>  (1) 
0.0012510015798316548

>  <r_epik_Ionization_Penalty_Charging>  (1) 
0

>  <r_epik_Ionization_Penalty_Neutral>  (1) 
0.0012510015798316548

>  <r_epik_State_Penalty>  (1) 
-0

>  <r_glide_ring_energy>  (1) 
2.4413042619657612

>  <r_i_docking_score>  (1) 
-4.3961045278164397

>  <r_i_glide_ecoul>  (1) 
-0.84359494393438006

>  <r_i_glide_eff_state_penalty>  (1) 
-0

>  <r_i_glide_einternal>  (1) 
14.828781342080465

>  <r_i_glide_emodel>  (1) 
-23.597610022921181

>  <r_i_glide_emodel_strain>  (1) 
1.3940985557899239

>  <r_i_glide_energy>  (1) 
-25.951819454168135

>  <r_i_glide_erotb>  (1) 
0.31537474361301371

>  <r_i_glide_esite>  (1) 
0

>  <r_i_glide_evdw>  (1) 
-25.108224510233754

>  <r_i_glide_gscore>  (1) 
-4.3961045278164397

>  <r_i_glide_gscore_strain>  (1) 
0

>  <r_i_glide_hbond>  (1) 
0

>  <r_i_glide_ligand_efficiency>  (1) 
-0.12560298650904114

>  <r_i_glide_ligand_efficiency_ln>  (1) 
-0.96504251013897124

>  <r_i_glide_ligand_efficiency_sa>  (1) 
-0.41085569762879648

>  <r_i_glide_lipo>  (1) 
-2.6104550450188375

>  <r_i_glide_metal>  (1) 
-0

>  <r_i_glide_rewards>  (1) 
-0.71907375930877071

>  <r_lp_Energy>  (1) 
38.603110000000001

>  <r_lp_tautomer_probability>  (1) 
1

>  <s_epik_Chemistry_Notes>  (1) 
This compound has a N-S or N-O group and may undergo hydrolysis at high or low pH.

>  <s_epik_cmdline>  (1) 
J2VwaWtfcHl0aG9uJywgJy1waHQnLCAnMS4wJywgJy1waCcsICc3LjQnLCAnLXRuJywgJzgnLCAnLW1hJywgJzUwMCcsICctaW1hZScsICc8aW5maWxlLm1hZT4nLCAnLW9tYWUnLCAnPG91dGZpbGUubWFlPic=

>  <s_epik_input>  (1) 
W0NIMl0xW0NASF0oW0NASF0xMilbQ0gyXVtDSDJdW0NASF0yW0NIMl1bQ0BASF0oW0NAQEhdKFtDQEBIXTM0KVtDSDJdNClbQ0gyXVtDQEhdM1tDQEBIXShbQ0gyXVtDSDJdNSlbQ0BASF0oQyhGKShGKUYpW0NIXT1DNU4oW0NIMl02KU9bQ0BASF0oW0NIMl1bQ0gyXU83KVtDQEBIXTZbQ0BAXTc4U1tDQEhdOFtDSDNd

>  <s_glide_docking_method>  (1) 
confgen

>  <s_i_glide_gridfile>  (1) 
gpcr_drd2_6luq_protein_autoprepared_prepared

>  <s_lp_Force_Field>  (1) 
S-OPLS

>  <s_lp_Variant>  (1) 
DiffSBDD_43-1

>  <s_m_source_file>  (1) 
generated_generic_title2_ligand_DiffSBDD_2026-06-23_prepared.sdf

>  <GenAI_Model>  (1) 
DiffSBDD

>  <Protein>  (1) 
generic_title2

$$$$
DiffSBDD_31
     RDKit          3D

  0  0  0  0  0  0  0  0  0  0999 V3000
M  V30 BEGIN CTAB
M  V30 COUNTS 103 109 0 0 1
M  V30 BEGIN ATOM
M  V30 1 C 10.973184 6.208165 -22.408957 0
M  V30 2 C 9.511151 4.480485 -16.611526 0
M  V30 3 C 9.778900 7.148159 -8.540444 0 CFG=2
M  V30 4 C 9.215885 5.038467 -20.152636 0
M  V30 5 O 10.088219 5.581313 -14.550846 0
M  V30 6 C 4.912909 7.480280 -18.159311 0
M  V30 7 C 11.844486 5.899374 -21.183457 0
M  V30 8 C 6.182992 6.729491 -12.364569 0
M  V30 9 C 9.491565 6.522308 -22.104172 0 CFG=1
M  V30 10 C 11.675634 4.452756 -20.774391 0 CFG=2
M  V30 11 C 4.596712 8.073835 -19.541815 0 CFG=1
M  V30 12 C 10.325503 4.005540 -20.265055 0 CFG=1
M  V30 13 C 10.932768 3.974753 -16.931457 0
M  V30 14 C 13.167146 4.938321 -17.647154 0 CFG=1
M  V30 15 C 5.882540 6.284682 -18.127044 0
M  V30 16 C 11.545695 3.932030 -19.358651 0 CFG=2
M  V30 17 C 8.576012 3.295866 -13.080689 0
M  V30 18 C 5.658306 8.645185 -20.462069 0 CFG=2
M  V30 19 C 7.091737 5.075868 -14.013076 0
M  V30 20 C 5.638621 5.816252 -11.259028 0
M  V30 21 C 10.838803 7.421696 -9.627897 0
M  V30 22 O 10.573402 7.118801 -11.998135 0
M  V30 23 O 8.780334 5.469002 -21.441850 0
M  V30 24 N 6.872231 7.843087 -20.747891 0 CFG=1 CHG=1
M  V30 25 C 11.683787 4.731122 -18.060529 0 CFG=1
M  V30 26 C 10.097601 6.984058 -10.874812 0
M  V30 27 C 8.198216 4.075807 -14.371330 0 CFG=1
M  V30 28 C 6.094435 6.743267 -21.304900 0
M  V30 29 C 6.741526 4.794776 -10.959114 0
M  V30 30 C 7.468207 6.045016 -12.860185 0 CFG=2
M  V30 31 C 7.871468 8.493741 -21.626304 0
M  V30 32 C 8.724601 6.379840 -10.632201 0 CFG=1
M  V30 33 C 14.073760 5.557596 -18.719708 0
M  V30 34 C 9.283631 7.906701 -21.449326 0
M  V30 35 C 4.833049 7.453003 -20.900445 0 CFG=1
M  V30 36 O 9.446035 4.790178 -8.891520 0
M  V30 37 C 9.037110 4.196060 -11.938274 0
M  V30 38 O 13.214011 5.817010 -16.538007 0
M  V30 39 C 8.048192 5.336904 -11.595546 0 CFG=1
M  V30 40 C 9.343551 4.790504 -15.120602 0
M  V30 41 C 10.371972 6.859703 -7.151109 0
M  V30 42 C 3.615883 7.112839 -17.422119 0
M  V30 43 C 8.846598 6.043935 -9.113439 0 CFG=1
M  V30 44 H 11.028668 5.375370 -23.111609 0
M  V30 45 H 11.406069 7.056428 -22.939934 0
M  V30 46 H 8.770977 3.746420 -16.928105 0
M  V30 47 H 9.296357 5.396379 -17.160885 0
M  V30 48 H 9.175862 8.052980 -8.443715 0
M  V30 49 H 8.373847 4.563660 -19.648725 0
M  V30 50 H 9.506334 5.878854 -19.527632 0
M  V30 51 H 5.375809 8.281696 -17.581080 0
M  V30 52 H 12.893533 6.058512 -21.435019 0
M  V30 53 H 11.617663 6.572518 -20.357378 0
M  V30 54 H 5.452891 6.891718 -13.158977 0
M  V30 55 H 6.409978 7.712366 -11.950652 0
M  V30 56 H 9.014922 6.583386 -23.083317 0
M  V30 57 H 12.142367 3.768036 -21.480889 0
M  V30 58 H 3.696631 8.684874 -19.499756 0
M  V30 59 H 9.976655 3.058149 -20.671666 0
M  V30 60 H 11.534727 3.990046 -16.023609 0
M  V30 61 H 10.876837 2.911441 -17.166731 0
M  V30 62 H 13.595673 3.981321 -17.344283 0
M  V30 63 H 5.498479 5.442395 -18.702545 0
M  V30 64 H 6.878420 6.539046 -18.484036 0
M  V30 65 H 6.012095 5.930795 -17.104228 0
M  V30 66 H 11.958841 2.932119 -19.240816 0
M  V30 67 H 7.710330 2.712137 -12.770763 0
M  V30 68 H 9.353024 2.546711 -13.185026 0
M  V30 69 H 5.512307 9.543869 -21.060521 0
M  V30 70 H 6.196387 4.510157 -13.752182 0
M  V30 71 H 6.814060 5.655818 -14.892969 0
M  V30 72 H 4.740625 5.293668 -11.578621 0
M  V30 73 H 5.374340 6.393704 -10.375690 0
M  V30 74 H 11.137541 8.469269 -9.671490 0
M  V30 75 H 11.720457 6.795602 -9.496435 0
M  V30 76 H 11.247208 5.719465 -18.198876 0
M  V30 77 H 7.777934 3.352611 -15.068964 0
M  V30 78 H 6.208438 6.624436 -22.383739 0
M  V30 79 H 6.279692 5.794745 -20.803208 0
M  V30 80 H 6.447001 3.855857 -11.423194 0
M  V30 81 H 6.811435 4.567165 -9.898734 0
M  V30 82 H 8.164571 6.792670 -13.240739 0
M  V30 83 H 7.924333 9.545917 -21.341724 0
M  V30 84 H 7.556668 8.479609 -22.671340 0
M  V30 85 H 8.175329 7.297159 -10.785025 0
M  V30 86 H 14.164597 4.913587 -19.592839 0
M  V30 87 H 13.701310 6.527578 -19.048020 0
M  V30 88 H 15.082004 5.708959 -18.333849 0
M  V30 89 H 9.576077 7.909049 -20.400085 0
M  V30 90 H 9.970327 8.605791 -21.929608 0
M  V30 91 H 4.099276 7.627380 -21.685521 0
M  V30 92 H 8.903004 4.132666 -9.298134 0
M  V30 93 H 10.016598 4.591478 -12.199803 0
M  V30 94 H 9.211708 3.568467 -11.068086 0
M  V30 95 H 12.667593 5.468470 -15.846492 0
M  V30 96 H 11.041280 5.998994 -7.170051 0
M  V30 97 H 10.938770 7.715305 -6.784798 0
M  V30 98 H 9.581389 6.652317 -6.429807 0
M  V30 99 H 3.024741 6.394005 -17.985504 0
M  V30 100 H 3.826733 6.674651 -16.446452 0
M  V30 101 H 2.990084 7.989948 -17.255973 0
M  V30 102 H 7.886226 5.990308 -8.601251 0
M  V30 103 H 7.293041 7.564438 -19.873102 0
M  V30 END ATOM
M  V30 BEGIN BOND
M  V30 1 1 7 1
M  V30 2 1 9 1
M  V30 3 1 10 7
M  V30 4 1 11 6
M  V30 5 1 12 4
M  V30 6 1 12 10
M  V30 7 1 13 2
M  V30 8 1 15 6
M  V30 9 1 16 10
M  V30 10 1 16 12
M  V30 11 1 18 11
M  V30 12 1 20 8
M  V30 13 1 21 3
M  V30 14 1 23 4
M  V30 15 1 23 9
M  V30 16 1 24 18
M  V30 17 1 25 13
M  V30 18 1 25 14
M  V30 19 1 25 16
M  V30 20 1 26 21
M  V30 21 2 26 22
M  V30 22 1 27 17
M  V30 23 1 27 19
M  V30 24 1 28 24
M  V30 25 1 29 20
M  V30 26 1 30 8
M  V30 27 1 30 19
M  V30 28 1 31 24
M  V30 29 1 32 26
M  V30 30 1 33 14
M  V30 31 1 34 9
M  V30 32 1 34 31
M  V30 33 1 35 11
M  V30 34 1 35 18
M  V30 35 1 35 28
M  V30 36 1 37 17
M  V30 37 1 38 14
M  V30 38 1 39 29 CFG=1
M  V30 39 1 39 30
M  V30 40 1 39 32
M  V30 41 1 39 37
M  V30 42 1 40 2
M  V30 43 2 40 5
M  V30 44 1 40 27
M  V30 45 1 41 3
M  V30 46 1 42 6
M  V30 47 1 43 3
M  V30 48 1 43 32
M  V30 49 1 43 36
M  V30 50 1 44 1
M  V30 51 1 45 1
M  V30 52 1 46 2
M  V30 53 1 47 2
M  V30 54 1 3 48 CFG=1
M  V30 55 1 49 4
M  V30 56 1 50 4
M  V30 57 1 51 6
M  V30 58 1 52 7
M  V30 59 1 53 7
M  V30 60 1 54 8
M  V30 61 1 55 8
M  V30 62 1 9 56 CFG=3
M  V30 63 1 10 57 CFG=3
M  V30 64 1 11 58 CFG=1
M  V30 65 1 12 59 CFG=3
M  V30 66 1 60 13
M  V30 67 1 61 13
M  V30 68 1 14 62 CFG=1
M  V30 69 1 63 15
M  V30 70 1 64 15
M  V30 71 1 65 15
M  V30 72 1 16 66 CFG=1
M  V30 73 1 67 17
M  V30 74 1 68 17
M  V30 75 1 18 69 CFG=3
M  V30 76 1 70 19
M  V30 77 1 71 19
M  V30 78 1 72 20
M  V30 79 1 73 20
M  V30 80 1 74 21
M  V30 81 1 75 21
M  V30 82 1 25 76 CFG=3
M  V30 83 1 27 77 CFG=3
M  V30 84 1 78 28
M  V30 85 1 79 28
M  V30 86 1 80 29
M  V30 87 1 81 29
M  V30 88 1 30 82 CFG=3
M  V30 89 1 83 31
M  V30 90 1 84 31
M  V30 91 1 32 85 CFG=1
M  V30 92 1 86 33
M  V30 93 1 87 33
M  V30 94 1 88 33
M  V30 95 1 89 34
M  V30 96 1 90 34
M  V30 97 1 35 91 CFG=3
M  V30 98 1 92 36
M  V30 99 1 93 37
M  V30 100 1 94 37
M  V30 101 1 95 38
M  V30 102 1 96 41
M  V30 103 1 97 41
M  V30 104 1 98 41
M  V30 105 1 99 42
M  V30 106 1 100 42
M  V30 107 1 101 42
M  V30 108 1 43 102 CFG=1
M  V30 109 1 24 103 CFG=1
M  V30 END BOND
M  V30 END CTAB
M  END
>  <i_epik_Tot_Q>  (1) 
1

>  <i_epik_Tot_abs_Q>  (1) 
1

>  <i_i_glide_confnum>  (1) 
970

>  <i_i_glide_lignum>  (1) 
53

>  <i_i_glide_posenum>  (1) 
239

>  <i_i_glide_rotatable_bonds>  (1) 
13

>  <i_lp_mmshare_version>  (1) 
72125

>  <i_m_source_file_index>  (1) 
32

>  <i_f3d_flags>  (1) 
0

>  <num_sample>  (1) 
100

>  <b_lp_Chiralities_Consistent>  (1) 
1

>  <r_epik_Charging_Adjusted_Penalty>  (1) 
0.00082013732971917403

>  <r_epik_Ionization_Penalty>  (1) 
0.00082046965520535795

>  <r_epik_Ionization_Penalty_Charging>  (1) 
0.00082013732971917403

>  <r_epik_Ionization_Penalty_Neutral>  (1) 
3.3232548618397322e-07

>  <r_epik_State_Penalty>  (1) 
-0

>  <r_glide_ring_energy>  (1) 
1.7158683604837299

>  <r_i_docking_score>  (1) 
-4.3928030360210126

>  <r_i_glide_ecoul>  (1) 
-1.7134476400160832

>  <r_i_glide_eff_state_penalty>  (1) 
-0

>  <r_i_glide_einternal>  (1) 
32.386215820540386

>  <r_i_glide_emodel>  (1) 
-21.832646279039672

>  <r_i_glide_emodel_strain>  (1) 
0.85938528868493336

>  <r_i_glide_energy>  (1) 
-32.034271403912754

>  <r_i_glide_erotb>  (1) 
0.46956192147436254

>  <r_i_glide_esite>  (1) 
-0.046563550809828679

>  <r_i_glide_evdw>  (1) 
-30.320823763896673

>  <r_i_glide_gscore>  (1) 
-4.3928030360210126

>  <r_i_glide_gscore_strain>  (1) 
0

>  <r_i_glide_hbond>  (1) 
0

>  <r_i_glide_ligand_efficiency>  (1) 
-0.10215821014002355

>  <r_i_glide_ligand_efficiency_ln>  (1) 
-0.92262516367286007

>  <r_i_glide_ligand_efficiency_sa>  (1) 
-0.35790087525713793

>  <r_i_glide_lipo>  (1) 
-2.1965020580827432

>  <r_i_glide_metal>  (1) 
-0

>  <r_i_glide_rewards>  (1) 
-0.84624101440555688

>  <r_lp_Energy>  (1) 
46.113288999999995

>  <r_lp_tautomer_probability>  (1) 
1

>  <s_epik_cmdline>  (1) 
J2VwaWtfcHl0aG9uJywgJy1waHQnLCAnMS4wJywgJy1waCcsICc3LjQnLCAnLXRuJywgJzgnLCAnLW1hJywgJzUwMCcsICctaW1hZScsICc8aW5maWxlLm1hZT4nLCAnLW9tYWUnLCAnPG91dGZpbGUubWFlPic=

>  <s_epik_input>  (1) 
W0NIM11bQ0hdKFtDSDNdKVtDQEBIXTFbQ0BASF0oW0NAQEhdMTIpW0NIMl1OMltDSDJdW0NIMl1bQ0BASF0oW0NIMl1bQ0gyXTMpT1tDSDJdW0NAQEhdKFtDQEBIXTM0KVtDQEBIXTRbQ0BIXShbQ0BASF0oW0NIM10pW09IXSlbQ0gyXVtDSDJdQyg9TylbQ0BASF0oW0NIMl1bQ0gyXTUpW0NIMl1bQ0BASF0oW0NIMl1bQ0gyXVtDSDJdNilbQ0BdNTZbQ0BASF0oW0NASF03W09IXSlDKD1PKVtDSDJdW0NAQEhdN1tDSDNd

>  <s_glide_docking_method>  (1) 
confgen

>  <s_i_glide_gridfile>  (1) 
gpcr_drd2_6luq_protein_autoprepared_prepared

>  <s_lp_Force_Field>  (1) 
S-OPLS

>  <s_lp_Variant>  (1) 
DiffSBDD_31-2

>  <s_m_source_file>  (1) 
generated_generic_title2_ligand_DiffSBDD_2026-06-23_prepared.sdf

>  <GenAI_Model>  (1) 
DiffSBDD

>  <Protein>  (1) 
generic_title2

$$$$
DiffSBDD_78
     RDKit          3D

  0  0  0  0  0  0  0  0  0  0999 V3000
M  V30 BEGIN CTAB
M  V30 COUNTS 80 84 0 0 1
M  V30 BEGIN ATOM
M  V30 1 C 11.312961 8.304446 -7.355463 0 CFG=2
M  V30 2 C 12.749166 8.531739 -7.859681 0
M  V30 3 C 5.377175 4.190384 -11.905989 0 CFG=1
M  V30 4 C 6.633526 4.523249 -14.206016 0 CFG=2
M  V30 5 C 11.211167 7.341494 -6.171914 0
M  V30 6 N 7.648985 3.775015 -16.338367 0
M  V30 7 C 7.291884 3.528856 -13.195429 0 CFG=1
M  V30 8 C 7.563062 5.466490 -11.607754 0 CFG=1
M  V30 9 N 10.450310 7.671233 -8.368833 0 CFG=1 CHG=1
M  V30 10 C 9.286111 7.135891 -7.661705 0
M  V30 11 N 8.331553 6.739453 -11.585050 0 CFG=2 CHG=1
M  V30 12 C 5.189791 6.506496 -11.224732 0
M  V30 13 C 7.468083 4.920847 -15.438774 0
M  V30 14 C 8.844001 5.180231 -18.056995 0
M  V30 15 O 6.078073 5.674761 -13.503518 0
M  V30 16 C 8.230095 7.514631 -12.836721 0
M  V30 17 C 8.982254 5.374554 -19.578166 0 CFG=1
M  V30 18 C 5.788119 3.278354 -10.846362 0
M  V30 19 C 6.057242 5.539957 -12.066339 0 CFG=2
M  V30 20 F 9.485054 4.255659 -20.104679 0
M  V30 21 C 9.846967 6.664692 -6.341391 0
M  V30 22 C 5.105762 7.970330 -11.667956 0
M  V30 23 O 6.583142 4.444230 -18.325999 0
M  V30 24 C 8.296708 4.306981 -12.350120 0
M  V30 25 C 7.593211 5.621326 -20.196599 0 CFG=1
M  V30 26 C 10.560026 7.722403 -10.785056 0
M  V30 27 C 7.806866 4.071034 -17.767793 0 CFG=2
M  V30 28 C 10.108334 8.480412 -9.546536 0
M  V30 29 C 9.743401 6.483999 -11.155722 0
M  V30 30 C 9.967805 6.503327 -19.925074 0
M  V30 31 C 6.592232 4.543632 -19.747513 0
M  V30 32 C 6.175359 2.983235 -12.318220 0 CFG=1
M  V30 33 F 7.122374 6.818163 -19.840185 0
M  V30 34 H 10.870081 9.256762 -7.065270 0
M  V30 35 H 13.352675 9.039802 -7.108083 0
M  V30 36 H 13.240166 7.591112 -8.105305 0
M  V30 37 H 12.775506 9.155019 -8.754165 0
M  V30 38 H 4.362994 4.135521 -12.287937 0
M  V30 39 H 5.775409 4.003538 -14.618249 0
M  V30 40 H 11.322825 7.839855 -5.209272 0
M  V30 41 H 11.976930 6.568240 -6.240211 0
M  V30 42 H 8.412490 3.189579 -16.015719 0
M  V30 43 H 7.775694 2.697518 -13.709753 0
M  V30 44 H 7.568190 5.244575 -10.543298 0
M  V30 45 H 8.575409 7.940722 -7.476238 0
M  V30 46 H 8.774932 6.346258 -8.212973 0
M  V30 47 H 4.175415 6.138976 -11.185034 0
M  V30 48 H 5.459101 6.390229 -10.178709 0
M  V30 49 H 8.435175 5.332656 -15.158686 0
M  V30 50 H 6.930152 5.712911 -15.960893 0
M  V30 51 H 8.513591 6.106645 -17.595196 0
M  V30 52 H 9.799454 4.905387 -17.612045 0
M  V30 53 H 8.575383 6.893774 -13.651228 0
M  V30 54 H 7.220410 7.806017 -13.095391 0
M  V30 55 H 8.796736 8.439466 -12.784988 0
M  V30 56 H 6.532816 3.590251 -10.124231 0
M  V30 57 H 4.975400 2.790231 -10.385024 0
M  V30 58 H 9.133635 6.931520 -5.584992 0
M  V30 59 H 9.963098 5.590234 -6.345824 0
M  V30 60 H 4.270124 8.474526 -11.184859 0
M  V30 61 H 6.003291 8.534991 -11.431739 0
M  V30 62 H 4.935498 8.018286 -12.741828 0
M  V30 63 H 8.789728 3.644901 -11.635896 0
M  V30 64 H 9.068915 4.656917 -13.031305 0
M  V30 65 H 7.657304 5.640577 -21.284833 0
M  V30 66 H 11.609408 7.442877 -10.676188 0
M  V30 67 H 10.533429 8.390206 -11.612183 0
M  V30 68 H 8.106401 3.141399 -18.258261 0
M  V30 69 H 10.636387 9.432441 -9.504635 0
M  V30 70 H 9.046621 8.730495 -9.591866 0
M  V30 71 H 9.760409 5.781182 -10.322488 0
M  V30 72 H 10.291353 5.999951 -11.963891 0
M  V30 73 H 9.628473 7.464475 -19.537129 0
M  V30 74 H 10.954152 6.308469 -19.506285 0
M  V30 75 H 10.083481 6.607453 -21.003711 0
M  V30 76 H 6.840729 3.575464 -20.185858 0
M  V30 77 H 5.587678 4.794902 -20.090849 0
M  V30 78 H 5.634352 2.170848 -12.796405 0
M  V30 79 H 10.967013 6.866645 -8.691173 0
M  V30 80 H 7.873033 7.294185 -10.861241 0
M  V30 END ATOM
M  V30 BEGIN BOND
M  V30 1 1 2 1
M  V30 2 1 5 1
M  V30 3 1 7 4
M  V30 4 1 9 1
M  V30 5 1 10 9
M  V30 6 1 11 8
M  V30 7 1 13 4
M  V30 8 1 13 6
M  V30 9 1 15 4
M  V30 10 1 16 11
M  V30 11 1 17 14
M  V30 12 1 18 3
M  V30 13 1 19 3
M  V30 14 1 19 8
M  V30 15 1 19 12 CFG=1
M  V30 16 1 19 15
M  V30 17 1 17 20 CFG=3
M  V30 18 1 21 5
M  V30 19 1 21 10
M  V30 20 1 22 12
M  V30 21 1 24 7
M  V30 22 1 24 8
M  V30 23 1 25 17
M  V30 24 1 27 6
M  V30 25 1 27 14
M  V30 26 1 27 23
M  V30 27 1 28 9
M  V30 28 1 28 26
M  V30 29 1 29 11
M  V30 30 1 29 26
M  V30 31 1 30 17
M  V30 32 1 31 23
M  V30 33 1 31 25
M  V30 34 1 32 3
M  V30 35 1 32 7
M  V30 36 1 32 18
M  V30 37 1 33 25
M  V30 38 1 1 34 CFG=1
M  V30 39 1 35 2
M  V30 40 1 36 2
M  V30 41 1 37 2
M  V30 42 1 3 38 CFG=3
M  V30 43 1 4 39 CFG=3
M  V30 44 1 40 5
M  V30 45 1 41 5
M  V30 46 1 42 6
M  V30 47 1 7 43 CFG=3
M  V30 48 1 8 44 CFG=1
M  V30 49 1 45 10
M  V30 50 1 46 10
M  V30 51 1 47 12
M  V30 52 1 48 12
M  V30 53 1 49 13
M  V30 54 1 50 13
M  V30 55 1 51 14
M  V30 56 1 52 14
M  V30 57 1 53 16
M  V30 58 1 54 16
M  V30 59 1 55 16
M  V30 60 1 56 18
M  V30 61 1 57 18
M  V30 62 1 58 21
M  V30 63 1 59 21
M  V30 64 1 60 22
M  V30 65 1 61 22
M  V30 66 1 62 22
M  V30 67 1 63 24
M  V30 68 1 64 24
M  V30 69 1 25 65 CFG=3
M  V30 70 1 66 26
M  V30 71 1 67 26
M  V30 72 1 27 68 CFG=3
M  V30 73 1 69 28
M  V30 74 1 70 28
M  V30 75 1 71 29
M  V30 76 1 72 29
M  V30 77 1 73 30
M  V30 78 1 74 30
M  V30 79 1 75 30
M  V30 80 1 76 31
M  V30 81 1 77 31
M  V30 82 1 32 78 CFG=3
M  V30 83 1 9 79 CFG=3
M  V30 84 1 11 80 CFG=1
M  V30 END BOND
M  V30 END CTAB
M  END
>  <i_epik_Tot_Q>  (1) 
2

>  <i_epik_Tot_abs_Q>  (1) 
2

>  <i_i_glide_confnum>  (1) 
286

>  <i_i_glide_lignum>  (1) 
130

>  <i_i_glide_posenum>  (1) 
216

>  <i_i_glide_rotatable_bonds>  (1) 
9

>  <i_lp_mmshare_version>  (1) 
72125

>  <i_m_source_file_index>  (1) 
79

>  <i_f3d_flags>  (1) 
0

>  <num_sample>  (1) 
100

>  <b_lp_Chiralities_Consistent>  (1) 
1

>  <r_epik_Charging_Adjusted_Penalty>  (1) 
0.22182564166484353

>  <r_epik_Ionization_Penalty>  (1) 
0.22182564166592098

>  <r_epik_Ionization_Penalty_Charging>  (1) 
0.060182310347739972

>  <r_epik_Ionization_Penalty_Neutral>  (1) 
0.16164333131818101

>  <r_epik_State_Penalty>  (1) 
0.16164333131710357

>  <r_glide_ring_energy>  (1) 
0

>  <r_i_docking_score>  (1) 
-4.3846421501510875

>  <r_i_glide_ecoul>  (1) 
-5.9662731428080296

>  <r_i_glide_eff_state_penalty>  (1) 
0.16164333131710357

>  <r_i_glide_einternal>  (1) 
28.073101202993982

>  <r_i_glide_emodel>  (1) 
-24.070186377430637

>  <r_i_glide_emodel_strain>  (1) 
2.6048081940310652

>  <r_i_glide_energy>  (1) 
-25.013433336479267

>  <r_i_glide_erotb>  (1) 
0.726867567680611

>  <r_i_glide_esite>  (1) 
-0.12580412044968292

>  <r_i_glide_evdw>  (1) 
-19.047160193671239

>  <r_i_glide_gscore>  (1) 
-4.5462854814681908

>  <r_i_glide_gscore_strain>  (1) 
0

>  <r_i_glide_hbond>  (1) 
-0.20000000000000001

>  <r_i_glide_ligand_efficiency>  (1) 
-0.13286794394397236

>  <r_i_glide_ligand_efficiency_ln>  (1) 
-0.97512171173155804

>  <r_i_glide_ligand_efficiency_sa>  (1) 
-0.42617849155625243

>  <r_i_glide_lipo>  (1) 
-1.8177778396781332

>  <r_i_glide_metal>  (1) 
-0

>  <r_i_glide_rewards>  (1) 
-1.2822721079162187

>  <r_lp_Energy>  (1) 
68.58846299999999

>  <s_epik_Chemistry_Notes>  (1) 
This compound contains an acetal/aminal-like group ( X-CH(R)-Y where X, Y are N, S, or O) that may be acid/base labile, releasing an aldehyde.

>  <s_epik_cmdline>  (1) 
J2VwaWtfcHl0aG9uJywgJy1waHQnLCAnMS4wJywgJy1waCcsICc3LjQnLCAnLXRuJywgJzgnLCAnLW1hJywgJzUwMCcsICctaW1hZScsICc8aW5maWxlLm1hZT4nLCAnLW9tYWUnLCAnPG91dGZpbGUubWFlPic=

>  <s_epik_input>  (1) 
W0NIM11bQ0BASF0xW0NIMl1bQ0gyXVtDSDJdTjFbQ0gyXVtDSDJdW0NIMl1OKFtDSDNdKVtDQEBIXTJbQ0gyXVtDQEBIXShbQ0BASF0oW0NIMl0zKVtDQEBIXTNbQ0BAXTI0W0NIMl1bQ0gzXSlbQ0BASF0oTzQpW0NIMl1bTkhdW0NASF0oW0NIMl1bQ0BdNShGKVtDSDNdKU9bQ0gyXVtDQEhdNUY=

>  <s_glide_docking_method>  (1) 
confgen

>  <s_i_glide_gridfile>  (1) 
gpcr_drd2_6luq_protein_autoprepared_prepared

>  <s_lp_Force_Field>  (1) 
S-OPLS

>  <s_lp_Variant>  (1) 
DiffSBDD_78-2

>  <s_m_source_file>  (1) 
generated_generic_title2_ligand_DiffSBDD_2026-06-23_prepared.sdf

>  <GenAI_Model>  (1) 
DiffSBDD

>  <Protein>  (1) 
generic_title2

$$$$
DiffSBDD_45
     RDKit          3D

  0  0  0  0  0  0  0  0  0  0999 V3000
M  V30 BEGIN CTAB
M  V30 COUNTS 68 71 0 0 1
M  V30 BEGIN ATOM
M  V30 1 C 7.181264 4.980950 -15.271417 0 CFG=2
M  V30 2 C 10.050267 4.623653 -19.490414 0
M  V30 3 C 10.602332 7.936619 -7.218384 0 CFG=2
M  V30 4 C 7.004147 4.541248 -13.816156 0
M  V30 5 C 8.410246 4.312888 -15.931856 0 CFG=2
M  V30 6 C 10.975409 10.329897 -5.431051 0
M  V30 7 C 7.536743 4.621908 -11.348003 0
M  V30 8 O 7.247303 6.390239 -15.411599 0
M  V30 9 C 8.687728 4.814605 -17.365559 0
M  V30 10 N 11.493355 7.964611 -6.065004 0
M  V30 11 C 12.661471 8.940313 -4.254676 0
M  V30 12 C 10.077311 7.205835 -11.073819 0
M  V30 13 C 9.170084 6.329479 -11.551219 0
M  V30 14 C 8.721105 5.561681 -9.385629 0
M  V30 15 C 11.962880 7.675003 -3.763615 0
M  V30 16 N 8.480186 5.492889 -10.738381 0
M  V30 17 O 12.778876 7.590229 -8.881595 0
M  V30 18 C 12.034553 9.252801 -5.614364 0 CFG=2
M  V30 19 N 10.345518 7.292294 -9.684263 0
M  V30 20 O 8.175407 2.918341 -15.999664 0
M  V30 21 C 11.023801 7.245302 -4.896328 0
M  V30 22 C 11.252710 4.839419 -17.282307 0
M  V30 23 C 10.000478 4.291351 -17.991481 0
M  V30 24 C 8.796626 6.165603 -12.992008 0
M  V30 25 C 6.022436 7.070691 -15.177204 0
M  V30 26 C 9.921563 6.551380 -7.395877 0
M  V30 27 C 7.722363 5.068132 -12.799245 0
M  V30 28 O 11.375409 9.631684 -9.235370 0
M  V30 29 S 11.470980 8.237317 -8.829263 0
M  V30 30 C 9.612351 6.416240 -8.857995 0
M  V30 31 C 5.955208 3.469532 -13.585027 0
M  V30 32 H 6.299381 4.672784 -15.829604 0
M  V30 33 H 10.039337 5.700852 -19.658932 0
M  V30 34 H 10.952539 4.223752 -19.953733 0
M  V30 35 H 9.196862 4.195775 -20.017199 0
M  V30 36 H 9.806699 8.677396 -7.137883 0
M  V30 37 H 9.286770 4.481911 -15.310823 0
M  V30 38 H 11.375418 11.216713 -4.960318 0
M  V30 39 H 10.575508 10.628804 -6.385024 0
M  V30 40 H 10.175411 9.990800 -4.788292 0
M  V30 41 H 6.524260 4.788053 -10.977512 0
M  V30 42 H 7.846952 3.590236 -11.224454 0
M  V30 43 H 7.843282 4.536952 -17.997697 0
M  V30 44 H 8.717960 5.904040 -17.377900 0
M  V30 45 H 12.555486 9.754436 -3.536584 0
M  V30 46 H 13.730526 8.790222 -4.385032 0
M  V30 47 H 10.639614 7.889309 -11.684943 0
M  V30 48 H 8.134262 4.878507 -8.789207 0
M  V30 49 H 11.425753 7.838991 -2.830727 0
M  V30 50 H 12.698037 6.896475 -3.566517 0
M  V30 51 H 12.788330 9.608587 -6.318288 0
M  V30 52 H 8.023198 2.599469 -15.122612 0
M  V30 53 H 9.986670 7.540449 -4.785025 0
M  V30 54 H 11.052930 6.164098 -5.030549 0
M  V30 55 H 11.266959 5.929684 -17.286787 0
M  V30 56 H 11.312545 4.508976 -16.245653 0
M  V30 57 H 12.162807 4.495059 -17.774053 0
M  V30 58 H 10.015522 3.203943 -17.904365 0
M  V30 59 H 9.649895 5.838021 -13.583675 0
M  V30 60 H 8.376873 7.098781 -13.364853 0
M  V30 61 H 6.175746 8.141520 -15.308592 0
M  V30 62 H 5.253678 6.754402 -15.883340 0
M  V30 63 H 5.656083 6.908260 -14.163063 0
M  V30 64 H 9.015895 6.455807 -6.794081 0
M  V30 65 H 10.596736 5.731301 -7.148410 0
M  V30 66 H 6.175397 2.604381 -14.210676 0
M  V30 67 H 5.901162 3.116415 -12.557157 0
M  V30 68 H 4.977226 3.875577 -13.839851 0
M  V30 END ATOM
M  V30 BEGIN BOND
M  V30 1 1 4 1
M  V30 2 1 5 1
M  V30 3 1 8 1
M  V30 4 1 9 5
M  V30 5 1 10 3
M  V30 6 2 13 12
M  V30 7 1 15 11
M  V30 8 1 16 7
M  V30 9 1 16 13
M  V30 10 1 16 14
M  V30 11 1 18 6
M  V30 12 1 18 10
M  V30 13 1 18 11
M  V30 14 1 19 12
M  V30 15 1 20 5
M  V30 16 1 21 10
M  V30 17 1 21 15
M  V30 18 1 23 2
M  V30 19 1 23 9
M  V30 20 1 23 22
M  V30 21 1 24 13
M  V30 22 1 25 8
M  V30 23 1 26 3
M  V30 24 2 27 4
M  V30 25 1 27 7
M  V30 26 1 27 24
M  V30 27 1 29 3
M  V30 28 2 29 17
M  V30 29 1 29 19
M  V30 30 2 29 28
M  V30 31 2 30 14
M  V30 32 1 30 19
M  V30 33 1 30 26
M  V30 34 1 31 4
M  V30 35 1 1 32 CFG=3
M  V30 36 1 33 2
M  V30 37 1 34 2
M  V30 38 1 35 2
M  V30 39 1 3 36 CFG=1
M  V30 40 1 5 37 CFG=1
M  V30 41 1 38 6
M  V30 42 1 39 6
M  V30 43 1 40 6
M  V30 44 1 41 7
M  V30 45 1 42 7
M  V30 46 1 43 9
M  V30 47 1 44 9
M  V30 48 1 45 11
M  V30 49 1 46 11
M  V30 50 1 47 12
M  V30 51 1 48 14
M  V30 52 1 49 15
M  V30 53 1 50 15
M  V30 54 1 18 51 CFG=3
M  V30 55 1 52 20
M  V30 56 1 53 21
M  V30 57 1 54 21
M  V30 58 1 55 22
M  V30 59 1 56 22
M  V30 60 1 57 22
M  V30 61 1 58 23
M  V30 62 1 59 24
M  V30 63 1 60 24
M  V30 64 1 61 25
M  V30 65 1 62 25
M  V30 66 1 63 25
M  V30 67 1 64 26
M  V30 68 1 65 26
M  V30 69 1 66 31
M  V30 70 1 67 31
M  V30 71 1 68 31
M  V30 END BOND
M  V30 END CTAB
M  END
>  <i_epik_Tot_Q>  (1) 
0

>  <i_epik_Tot_abs_Q>  (1) 
0

>  <i_i_glide_confnum>  (1) 
26

>  <i_i_glide_lignum>  (1) 
73

>  <i_i_glide_posenum>  (1) 
145

>  <i_i_glide_rotatable_bonds>  (1) 
7

>  <i_lp_mmshare_version>  (1) 
72125

>  <i_m_source_file_index>  (1) 
46

>  <i_f3d_flags>  (1) 
0

>  <num_sample>  (1) 
100

>  <b_lp_Chiralities_Consistent>  (1) 
1

>  <r_epik_Charging_Adjusted_Penalty>  (1) 
5.5386030856760706e-14

>  <r_epik_Ionization_Penalty>  (1) 
0.0003901755545231811

>  <r_epik_Ionization_Penalty_Charging>  (1) 
5.5386030856760706e-14

>  <r_epik_Ionization_Penalty_Neutral>  (1) 
0.00039017555446779507

>  <r_epik_State_Penalty>  (1) 
-0

>  <r_glide_ring_energy>  (1) 
2.212502676076058

>  <r_i_docking_score>  (1) 
-4.3764651119535065

>  <r_i_glide_ecoul>  (1) 
-1.5147209405330671

>  <r_i_glide_eff_state_penalty>  (1) 
-0

>  <r_i_glide_einternal>  (1) 
4.8878033640852205

>  <r_i_glide_emodel>  (1) 
-23.555416470853892

>  <r_i_glide_emodel_strain>  (1) 
0.23030112772920575

>  <r_i_glide_energy>  (1) 
-25.405590729816247

>  <r_i_glide_erotb>  (1) 
0.39335991316148761

>  <r_i_glide_esite>  (1) 
-0.10600474424634915

>  <r_i_glide_evdw>  (1) 
-23.89086978928318

>  <r_i_glide_gscore>  (1) 
-4.3764651119535065

>  <r_i_glide_gscore_strain>  (1) 
0

>  <r_i_glide_hbond>  (1) 
0

>  <r_i_glide_ligand_efficiency>  (1) 
-0.14117629393398409

>  <r_i_glide_ligand_efficiency_ln>  (1) 
-0.98702700529368825

>  <r_i_glide_ligand_efficiency_sa>  (1) 
-0.44348847834053806

>  <r_i_glide_lipo>  (1) 
-2.5343087703119016

>  <r_i_glide_metal>  (1) 
-0

>  <r_i_glide_rewards>  (1) 
-0.70775988001262358

>  <r_lp_Energy>  (1) 
35.233378000000002

>  <r_lp_tautomer_probability>  (1) 
1

>  <s_epik_Chemistry_Notes>  (1) 
This compound has an imine and may undergo hydrolysis.

>  <s_epik_cmdline>  (1) 
J2VwaWtfcHl0aG9uJywgJy1waHQnLCAnMS4wJywgJy1waCcsICc3LjQnLCAnLXRuJywgJzgnLCAnLW1hJywgJzUwMCcsICctaW1hZScsICc8aW5maWxlLm1hZT4nLCAnLW9tYWUnLCAnPG91dGZpbGUubWFlPic=

>  <s_epik_input>  (1) 
W0NIM11bQ0hdKFtDSDNdKVtDSDJdW0NASF0oW09IXSlbQ0BIXShPW0NIM10pL0MoW0NIM10pPUMoW0NIMl0xKS9bQ0gyXU4oQzEyKVtDSF09QzNOKFtDSF09MilTKD1PKSg9TylbQ0BASF0oW0NIMl0zKU40W0NAQEhdKFtDSDNdKVtDSDJdW0NIMl1bQ0gyXTQ=

>  <s_glide_docking_method>  (1) 
confgen

>  <s_i_glide_gridfile>  (1) 
gpcr_drd2_6luq_protein_autoprepared_prepared

>  <s_lp_Force_Field>  (1) 
S-OPLS

>  <s_lp_Variant>  (1) 
DiffSBDD_45-1

>  <s_m_source_file>  (1) 
generated_generic_title2_ligand_DiffSBDD_2026-06-23_prepared.sdf

>  <GenAI_Model>  (1) 
DiffSBDD

>  <Protein>  (1) 
generic_title2

$$$$
DiffSBDD_40
     RDKit          3D

  0  0  0  0  0  0  0  0  0  0999 V3000
M  V30 BEGIN CTAB
M  V30 COUNTS 89 95 0 0 1
M  V30 BEGIN ATOM
M  V30 1 N 11.081562 6.680675 -20.545599 0
M  V30 2 C 9.574041 4.740788 -21.080124 0
M  V30 3 C 7.351424 3.689052 -13.764120 0
M  V30 4 C 10.810615 7.062822 -9.017224 0
M  V30 5 C 7.555858 3.724832 -15.184753 0
M  V30 6 C 10.970531 5.194184 -20.441897 0 CFG=2
M  V30 7 C 7.005101 1.341375 -15.314172 0
M  V30 8 C 8.811912 5.773432 -10.858034 0 CFG=1
M  V30 9 O 13.042670 4.279706 -17.402942 0
M  V30 10 C 7.550586 4.934857 -12.859039 0 CFG=1
M  V30 11 C 7.933991 5.010668 -15.912748 0 CFG=1
M  V30 12 N 14.212029 5.974356 -16.488526 0
M  V30 13 C 11.551332 4.445442 -19.256790 0 CFG=1
M  V30 14 C 7.149418 6.975077 -14.511868 0
M  V30 15 N 8.975158 8.157437 -6.508341 0 CHG=1
M  V30 16 C 14.175724 4.612787 -16.712845 0
M  V30 17 O 9.812185 5.709748 -13.141428 0
M  V30 18 C 9.182502 6.074447 -21.623218 0
M  V30 19 C 9.777567 6.793466 -11.208596 0
M  V30 20 C 11.094569 5.802079 -17.168968 0
M  V30 21 C 9.831766 8.381166 -21.782283 0
M  V30 22 C 10.030061 7.071041 -21.317814 0
M  V30 23 N 8.854749 5.015534 -12.182623 0
M  V30 24 C 10.154763 7.814877 -10.171477 0
M  V30 25 O 15.019496 3.796776 -16.351871 0
M  V30 26 C 6.959659 2.473391 -13.160328 0
M  V30 27 N 8.975386 6.118002 -7.605227 0
M  V30 28 C 9.334434 4.950303 -9.674206 0
M  V30 29 C 7.382477 2.540960 -15.941598 0
M  V30 30 C 6.867542 6.298344 -13.174146 0 CFG=1
M  V30 31 C 6.790358 1.308844 -13.929973 0
M  V30 32 C 8.042464 6.296482 -22.414408 0
M  V30 33 C 12.230552 4.372572 -20.603178 0
M  V30 34 C 7.794061 7.603488 -22.899164 0
M  V30 35 C 9.436530 6.770346 -6.405344 0
M  V30 36 C 5.375409 6.238551 -12.902782 0
M  V30 37 C 6.904274 6.125085 -15.748592 0
M  V30 38 C 12.174316 5.189680 -18.090062 0 CFG=1
M  V30 39 C 8.697232 8.653351 -22.582904 0
M  V30 40 O 9.249619 5.485782 -15.687476 0
M  V30 41 C 10.265001 6.714110 -12.384972 0
M  V30 42 C 10.295917 4.788076 -16.342860 0
M  V30 43 C 10.020749 5.789643 -8.553594 0 CFG=1
M  V30 44 H 11.989639 7.089537 -20.718790 0
M  V30 45 H 9.710853 3.990500 -21.858283 0
M  V30 46 H 8.877579 4.397171 -20.315518 0
M  V30 47 H 11.799647 6.790323 -9.371290 0
M  V30 48 H 11.020526 7.753470 -8.204766 0
M  V30 49 H 6.873253 0.443064 -15.900164 0
M  V30 50 H 7.847133 6.218264 -10.620640 0
M  V30 51 H 6.963757 4.610770 -11.998665 0
M  V30 52 H 7.876723 4.774648 -16.977889 0
M  V30 53 H 13.451704 6.538799 -16.832653 0
M  V30 54 H 14.994150 6.354280 -15.978457 0
M  V30 55 H 11.030401 3.535091 -18.964486 0
M  V30 56 H 8.172843 7.319377 -14.492716 0
M  V30 57 H 6.552797 7.882236 -14.597076 0
M  V30 58 H 9.456334 8.614618 -7.267802 0
M  V30 59 H 7.985180 8.115367 -6.732490 0
M  V30 60 H 10.400537 6.379559 -17.779134 0
M  V30 61 H 11.545811 6.519640 -16.485421 0
M  V30 62 H 10.529591 9.167565 -21.532143 0
M  V30 63 H 10.838321 8.565625 -10.569336 0
M  V30 64 H 9.256021 8.332735 -9.838616 0
M  V30 65 H 6.786320 2.436903 -12.097802 0
M  V30 66 H 8.410226 5.307612 -7.391933 0
M  V30 67 H 10.010221 4.189945 -10.050078 0
M  V30 68 H 8.495046 4.390576 -9.265112 0
M  V30 69 H 7.537427 2.557395 -17.010423 0
M  V30 70 H 7.217605 7.031935 -12.451444 0
M  V30 71 H 6.493813 0.384741 -13.452311 0
M  V30 72 H 7.372404 5.483560 -22.654363 0
M  V30 73 H 13.174570 4.900852 -20.715533 0
M  V30 74 H 12.155974 3.435351 -21.151221 0
M  V30 75 H 6.927264 7.799560 -23.511466 0
M  V30 76 H 8.974297 6.272620 -5.560377 0
M  V30 77 H 10.517893 6.709774 -6.269619 0
M  V30 78 H 4.868747 5.572429 -13.600878 0
M  V30 79 H 5.160214 5.915395 -11.883002 0
M  V30 80 H 4.974590 7.243272 -13.007997 0
M  V30 81 H 6.975014 6.785507 -16.613525 0
M  V30 82 H 5.891411 5.723322 -15.770604 0
M  V30 83 H 12.768149 5.997558 -18.518446 0
M  V30 84 H 8.520950 9.653722 -22.954280 0
M  V30 85 H 11.003301 7.342675 -12.853469 0
M  V30 86 H 10.953451 4.376186 -15.584614 0
M  V30 87 H 9.933524 3.960182 -16.951545 0
M  V30 88 H 10.703309 5.131511 -8.014477 0
M  V30 89 H 9.118521 8.647122 -5.639644 0
M  V30 END ATOM
M  V30 BEGIN BOND
M  V30 1 1 5 3
M  V30 2 1 6 1 CFG=1
M  V30 3 1 6 2
M  V30 4 1 10 3
M  V30 5 1 11 5
M  V30 6 1 13 6
M  V30 7 1 16 9
M  V30 8 1 16 12
M  V30 9 1 18 2
M  V30 10 1 19 8
M  V30 11 1 22 1
M  V30 12 1 22 18
M  V30 13 2 22 21
M  V30 14 1 23 8
M  V30 15 1 23 10
M  V30 16 1 23 17
M  V30 17 1 24 4
M  V30 18 1 24 19
M  V30 19 2 25 16
M  V30 20 2 26 3
M  V30 21 1 28 8
M  V30 22 2 29 5
M  V30 23 1 29 7
M  V30 24 1 30 10
M  V30 25 1 30 14
M  V30 26 2 31 7
M  V30 27 1 31 26
M  V30 28 2 32 18
M  V30 29 1 33 6
M  V30 30 1 33 13
M  V30 31 1 34 32
M  V30 32 1 35 15
M  V30 33 1 35 27
M  V30 34 1 36 30
M  V30 35 1 37 11
M  V30 36 1 37 14
M  V30 37 1 38 9
M  V30 38 1 38 13
M  V30 39 1 38 20
M  V30 40 1 39 21
M  V30 41 2 39 34
M  V30 42 1 40 11
M  V30 43 1 41 17
M  V30 44 2 41 19
M  V30 45 1 42 20
M  V30 46 1 42 40
M  V30 47 1 43 4
M  V30 48 1 43 27
M  V30 49 1 43 28
M  V30 50 1 44 1
M  V30 51 1 45 2
M  V30 52 1 46 2
M  V30 53 1 47 4
M  V30 54 1 48 4
M  V30 55 1 49 7
M  V30 56 1 8 50 CFG=1
M  V30 57 1 10 51 CFG=1
M  V30 58 1 11 52 CFG=3
M  V30 59 1 53 12
M  V30 60 1 54 12
M  V30 61 1 13 55 CFG=1
M  V30 62 1 56 14
M  V30 63 1 57 14
M  V30 64 1 58 15
M  V30 65 1 59 15
M  V30 66 1 60 20
M  V30 67 1 61 20
M  V30 68 1 62 21
M  V30 69 1 63 24
M  V30 70 1 64 24
M  V30 71 1 65 26
M  V30 72 1 66 27
M  V30 73 1 67 28
M  V30 74 1 68 28
M  V30 75 1 69 29
M  V30 76 1 30 70 CFG=1
M  V30 77 1 71 31
M  V30 78 1 72 32
M  V30 79 1 73 33
M  V30 80 1 74 33
M  V30 81 1 75 34
M  V30 82 1 76 35
M  V30 83 1 77 35
M  V30 84 1 78 36
M  V30 85 1 79 36
M  V30 86 1 80 36
M  V30 87 1 81 37
M  V30 88 1 82 37
M  V30 89 1 38 83 CFG=3
M  V30 90 1 84 39
M  V30 91 1 85 41
M  V30 92 1 86 42
M  V30 93 1 87 42
M  V30 94 1 43 88 CFG=1
M  V30 95 1 89 15
M  V30 END BOND
M  V30 END CTAB
M  END
>  <i_epik_Tot_Q>  (1) 
1

>  <i_epik_Tot_abs_Q>  (1) 
1

>  <i_i_glide_confnum>  (1) 
165

>  <i_i_glide_lignum>  (1) 
67

>  <i_i_glide_posenum>  (1) 
127

>  <i_i_glide_rotatable_bonds>  (1) 
10

>  <i_lp_mmshare_version>  (1) 
72125

>  <i_m_source_file_index>  (1) 
41

>  <i_f3d_flags>  (1) 
0

>  <num_sample>  (1) 
100

>  <b_lp_Chiralities_Consistent>  (1) 
1

>  <r_epik_Charging_Adjusted_Penalty>  (1) 
0.00021732795814705282

>  <r_epik_Ionization_Penalty>  (1) 
0.031196808922400864

>  <r_epik_Ionization_Penalty_Charging>  (1) 
0.00021732795814705282

>  <r_epik_Ionization_Penalty_Neutral>  (1) 
0.030979480964253809

>  <r_epik_State_Penalty>  (1) 
-0

>  <r_glide_ring_energy>  (1) 
0

>  <r_i_docking_score>  (1) 
-4.3755891550339019

>  <r_i_glide_ecoul>  (1) 
-1.6683883314609185

>  <r_i_glide_eff_state_penalty>  (1) 
-0

>  <r_i_glide_einternal>  (1) 
33.414952808849208

>  <r_i_glide_emodel>  (1) 
-32.605444018940808

>  <r_i_glide_emodel_strain>  (1) 
1.2138986987034457

>  <r_i_glide_energy>  (1) 
-38.610301498752065

>  <r_i_glide_erotb>  (1) 
0.31563021086283022

>  <r_i_glide_esite>  (1) 
-0.10253094429050398

>  <r_i_glide_evdw>  (1) 
-36.941913167291148

>  <r_i_glide_gscore>  (1) 
-4.3755891550339019

>  <r_i_glide_gscore_strain>  (1) 
0

>  <r_i_glide_hbond>  (1) 
-0.20000000000000001

>  <r_i_glide_ligand_efficiency>  (1) 
-0.10175788732636981

>  <r_i_glide_ligand_efficiency_ln>  (1) 
-0.91900971366680562

>  <r_i_glide_ligand_efficiency_sa>  (1) 
-0.35649838508825488

>  <r_i_glide_lipo>  (1) 
-1.8934164382548104

>  <r_i_glide_metal>  (1) 
-0

>  <r_i_glide_rewards>  (1) 
-0.39791807526772238

>  <r_lp_Energy>  (1) 
53.785801999999997

>  <r_lp_tautomer_probability>  (1) 
1

>  <s_epik_Chemistry_Notes>  (1) 
This compound has an ester and may undergo hydrolysis at high or low pH. This compound contains an acetal/aminal-like group ( X-CH(R)-Y where X, Y are N, S, or O) that may be acid/base labile, releasing an aldehyde. This compound has a N-S or N-O group and may undergo hydrolysis at high or low pH.

>  <s_epik_cmdline>  (1) 
J2VwaWtfcHl0aG9uJywgJy1waHQnLCAnMS4wJywgJy1waCcsICc3LjQnLCAnLXRuJywgJzgnLCAnLW1hJywgJzUwMCcsICctaW1hZScsICc8aW5maWxlLm1hZT4nLCAnLW9tYWUnLCAnPG91dGZpbGUubWFlPic=

>  <s_epik_input>  (1) 
W2NIXTFbY0hdW2NIXVtjSF1jKFtDSDJdMiljMVtOSF1bQ0BAXTIzW0NAQEhdKFtDSDJdMylbQ0BASF0oT0MoPU8pW05IMl0pW0NIMl1bQ0gyXU9bQ0BASF0oYyhjNDUpW2NIXVtjSF1bY0hdW2NIXTUpW0NIMl1bQ0gyXVtDQEBIXShbQ0gzXSlbQ0BASF00TjZPW0NIXT1DKFtDQEBIXTY3KVtDSDJdW0NIMl1bQ0BIXShbQ0gyXTcpW05IXVtDSDJdW05IMl0=

>  <s_glide_docking_method>  (1) 
confgen

>  <s_i_glide_gridfile>  (1) 
gpcr_drd2_6luq_protein_autoprepared_prepared

>  <s_lp_Force_Field>  (1) 
S-OPLS

>  <s_lp_Variant>  (1) 
DiffSBDD_40-2

>  <s_m_source_file>  (1) 
generated_generic_title2_ligand_DiffSBDD_2026-06-23_prepared.sdf

>  <GenAI_Model>  (1) 
DiffSBDD

>  <Protein>  (1) 
generic_title2

$$$$
DiffSBDD_76
     RDKit          3D

  0  0  0  0  0  0  0  0  0  0999 V3000
M  V30 BEGIN CTAB
M  V30 COUNTS 53 56 0 0 1
M  V30 BEGIN ATOM
M  V30 1 N 8.367076 6.067020 -12.718849 0
M  V30 2 N 11.673690 7.875557 -4.702598 0
M  V30 3 C 6.198116 5.798236 -13.857573 0 CFG=1
M  V30 4 C 11.375397 7.198309 -5.956544 0
M  V30 5 F 10.797556 7.590223 -11.219447 0
M  V30 6 C 11.775395 9.156318 -4.429689 0
M  V30 7 C 6.789900 4.785848 -14.851259 0
M  V30 8 C 6.944957 5.822285 -12.495326 0
M  V30 9 C 8.901644 5.681788 -8.036027 0
M  V30 10 C 9.220854 5.290882 -11.833197 0
M  V30 11 C 7.915698 2.904336 -16.638121 0
M  V30 12 N 11.927981 7.171879 -3.584844 0
M  V30 13 C 7.485578 4.153092 -17.120765 0
M  V30 14 C 7.775418 2.587009 -15.276125 0
M  V30 15 C 6.406636 6.390229 -16.798030 0
M  V30 16 N 11.560863 10.080729 -5.437726 0
M  V30 17 C 5.617383 7.282194 -15.847259 0
M  V30 18 C 7.222615 3.522142 -14.384339 0
M  V30 19 C 9.711405 6.809146 -7.799139 0
M  V30 20 C 6.097307 7.222482 -14.407425 0
M  V30 21 O 6.575427 6.738518 -17.965890 0
M  V30 22 C 10.341472 7.460668 -8.879667 0
M  V30 23 N 12.080385 9.451071 -3.187219 0
M  V30 24 C 9.906455 7.321523 -6.385685 0
M  V30 25 C 8.730022 5.200123 -9.347558 0
M  V30 26 C 10.175407 6.974765 -10.189307 0
M  V30 27 C 9.375281 5.838234 -10.424892 0
M  V30 28 C 12.175411 8.158637 -2.696304 0
M  V30 29 C 6.908264 5.096476 -16.240942 0
M  V30 30 H 8.600823 5.829440 -13.673155 0
M  V30 31 H 5.179588 5.456238 -13.668082 0
M  V30 32 H 12.020023 7.629307 -6.723966 0
M  V30 33 H 11.655784 6.146202 -5.876424 0
M  V30 34 H 6.789760 4.878692 -11.972279 0
M  V30 35 H 6.547377 6.594368 -11.834099 0
M  V30 36 H 8.407874 5.190209 -7.212955 0
M  V30 37 H 10.215283 5.273901 -12.280358 0
M  V30 38 H 8.899603 4.248737 -11.803609 0
M  V30 39 H 8.347397 2.183942 -17.317386 0
M  V30 40 H 7.582203 4.382641 -18.172617 0
M  V30 41 H 8.102310 1.623885 -14.911606 0
M  V30 42 H 11.625068 11.072783 -5.263875 0
M  V30 43 H 11.325318 9.793957 -6.376103 0
M  V30 44 H 5.658745 8.310260 -16.208548 0
M  V30 45 H 4.575469 6.974271 -15.911224 0
M  V30 46 H 7.128705 3.269298 -13.339474 0
M  V30 47 H 5.410639 7.787089 -13.777624 0
M  V30 48 H 7.064801 7.723761 -14.354324 0
M  V30 49 H 10.958795 8.328075 -8.703017 0
M  V30 50 H 9.288468 6.750678 -5.694546 0
M  V30 51 H 9.558220 8.354026 -6.343391 0
M  V30 52 H 8.106079 4.344130 -9.527099 0
M  V30 53 H 12.425289 7.943117 -1.667779 0
M  V30 END ATOM
M  V30 BEGIN BOND
M  V30 1 1 4 2
M  V30 2 1 6 2
M  V30 3 1 7 3
M  V30 4 1 8 1
M  V30 5 1 8 3
M  V30 6 1 10 1
M  V30 7 1 12 2
M  V30 8 1 13 11
M  V30 9 2 14 11
M  V30 10 1 16 6
M  V30 11 1 17 15
M  V30 12 2 18 7
M  V30 13 1 18 14
M  V30 14 1 19 9
M  V30 15 1 20 3
M  V30 16 1 20 17
M  V30 17 2 21 15
M  V30 18 2 22 19
M  V30 19 2 23 6
M  V30 20 1 24 4
M  V30 21 1 24 19
M  V30 22 2 25 9
M  V30 23 1 26 5
M  V30 24 1 26 22
M  V30 25 1 27 10
M  V30 26 1 27 25
M  V30 27 2 27 26
M  V30 28 2 28 12
M  V30 29 1 28 23
M  V30 30 1 29 7
M  V30 31 2 29 13
M  V30 32 1 29 15
M  V30 33 1 30 1
M  V30 34 1 3 31 CFG=1
M  V30 35 1 32 4
M  V30 36 1 33 4
M  V30 37 1 34 8
M  V30 38 1 35 8
M  V30 39 1 36 9
M  V30 40 1 37 10
M  V30 41 1 38 10
M  V30 42 1 39 11
M  V30 43 1 40 13
M  V30 44 1 41 14
M  V30 45 1 42 16
M  V30 46 1 43 16
M  V30 47 1 44 17
M  V30 48 1 45 17
M  V30 49 1 46 18
M  V30 50 1 47 20
M  V30 51 1 48 20
M  V30 52 1 49 22
M  V30 53 1 50 24
M  V30 54 1 51 24
M  V30 55 1 52 25
M  V30 56 1 53 28
M  V30 END BOND
M  V30 END CTAB
M  END
>  <i_epik_Tot_Q>  (1) 
0

>  <i_epik_Tot_abs_Q>  (1) 
0

>  <i_i_glide_confnum>  (1) 
277

>  <i_i_glide_lignum>  (1) 
127

>  <i_i_glide_posenum>  (1) 
289

>  <i_i_glide_rotatable_bonds>  (1) 
7

>  <i_lp_mmshare_version>  (1) 
72125

>  <i_m_source_file_index>  (1) 
77

>  <i_f3d_flags>  (1) 
0

>  <num_sample>  (1) 
100

>  <b_lp_Chiralities_Consistent>  (1) 
1

>  <r_epik_Charging_Adjusted_Penalty>  (1) 
1.3366453936174523

>  <r_epik_Ionization_Penalty>  (1) 
1.3374163863907844

>  <r_epik_Ionization_Penalty_Charging>  (1) 
0

>  <r_epik_Ionization_Penalty_Neutral>  (1) 
1.3374163863907844

>  <r_epik_State_Penalty>  (1) 
1.3366453936174523

>  <r_glide_ring_energy>  (1) 
0

>  <r_i_docking_score>  (1) 
-4.3457332159304141

>  <r_i_glide_ecoul>  (1) 
0.0076118548601880054

>  <r_i_glide_eff_state_penalty>  (1) 
1.3366453936174523

>  <r_i_glide_einternal>  (1) 
6.0375346536266736

>  <r_i_glide_emodel>  (1) 
-52.141385451099779

>  <r_i_glide_emodel_strain>  (1) 
0.12404651128678523

>  <r_i_glide_energy>  (1) 
-40.225663273292874

>  <r_i_glide_erotb>  (1) 
0.75709287640511513

>  <r_i_glide_esite>  (1) 
-0.018373662372415212

>  <r_i_glide_evdw>  (1) 
-40.233275128153061

>  <r_i_glide_gscore>  (1) 
-5.6823786095478663

>  <r_i_glide_gscore_strain>  (1) 
0

>  <r_i_glide_hbond>  (1) 
0

>  <r_i_glide_ligand_efficiency>  (1) 
-0.14985286951484186

>  <r_i_glide_ligand_efficiency_ln>  (1) 
-0.99506270816187703

>  <r_i_glide_ligand_efficiency_sa>  (1) 
-0.46039549238775451

>  <r_i_glide_lipo>  (1) 
-1.6674347606514055

>  <r_i_glide_metal>  (1) 
-0

>  <r_i_glide_rewards>  (1) 
-2.743141084750536

>  <r_lp_Energy>  (1) 
25.916193

>  <r_lp_tautomer_probability>  (1) 
0.99994999147066566

>  <s_epik_cmdline>  (1) 
J2VwaWtfcHl0aG9uJywgJy1waHQnLCAnMS4wJywgJy1waCcsICc3LjQnLCAnLXRuJywgJzgnLCAnLW1hJywgJzUwMCcsICctaW1hZScsICc8aW5maWxlLm1hZT4nLCAnLW9tYWUnLCAnPG91dGZpbGUubWFlPic=

>  <s_epik_input>  (1) 
W2NIXTFbY0hdW2NIXVtjSF1jKGMxMilDKD1PKVtDSDJdW0NIMl1bQ0BIXTJbQ0gyXVtOSF1bQ0gyXWMoYyhGKVtjSF0zKVtjSF1bY0hdYzNbQ0gyXVtDSDJdbjRjKFtOSDJdKW5bY0hdbjQ=

>  <s_glide_docking_method>  (1) 
confgen

>  <s_i_glide_gridfile>  (1) 
gpcr_drd2_6luq_protein_autoprepared_prepared

>  <s_lp_Force_Field>  (1) 
S-OPLS

>  <s_lp_Variant>  (1) 
DiffSBDD_76-4

>  <s_m_source_file>  (1) 
generated_generic_title2_ligand_DiffSBDD_2026-06-23_prepared.sdf

>  <GenAI_Model>  (1) 
DiffSBDD

>  <Protein>  (1) 
generic_title2

$$$$
DiffSBDD_81
     RDKit          3D

  0  0  0  0  0  0  0  0  0  0999 V3000
M  V30 BEGIN CTAB
M  V30 COUNTS 68 71 0 0 1
M  V30 BEGIN ATOM
M  V30 1 C 7.251911 4.944143 -12.925938 0 CFG=1
M  V30 2 C 11.200030 7.241930 -7.926405 0
M  V30 3 O 11.775365 6.432723 -3.636284 0
M  V30 4 C 11.356540 6.343565 -4.986717 0
M  V30 5 C 7.734697 3.912607 -15.386869 0
M  V30 6 C 7.516231 2.710810 -17.404418 0
M  V30 7 C 7.872627 3.939925 -16.764485 0
M  V30 8 C 5.779603 5.398728 -13.077972 0
M  V30 9 O 10.975442 9.990254 -5.964896 0
M  V30 10 O 9.390760 5.114989 -14.133644 0
M  V30 11 C 8.270327 7.291740 -12.135936 0 CFG=2
M  V30 12 C 7.731607 1.189105 -19.274874 0
M  V30 13 C 6.806949 1.735930 -13.492735 0 CFG=1
M  V30 14 C 7.991510 5.797430 -11.829381 0
M  V30 15 C 6.990192 1.828097 -15.084527 0
M  V30 16 O 11.797319 9.189664 -3.958556 0
M  V30 17 N 7.297385 3.618538 -12.294638 0
M  V30 18 C 8.975273 6.713661 -7.038264 0
M  V30 19 C 7.282243 2.710696 -14.904416 0
M  V30 20 C 10.720875 7.649097 -5.502431 0 CFG=1
M  V30 21 O 6.206486 2.778522 -12.749341 0
M  V30 22 C 8.002754 4.983757 -14.324688 0 CFG=2
M  V30 23 C 9.270652 8.082130 -11.237072 0
M  V30 24 C 7.055015 1.615710 -16.531640 0
M  V30 25 C 10.874255 8.009946 -9.184499 0 CFG=2
M  V30 26 C 10.336678 7.336759 -10.437347 0 CFG=2
M  V30 27 O 7.057542 7.981722 -11.985029 0
M  V30 28 O 8.624500 3.323982 -19.387041 0
M  V30 29 C 11.769366 7.843985 -10.359331 0
M  V30 30 C 11.601859 8.914586 -5.323776 0
M  V30 31 N 7.597302 2.563373 -18.805848 0
M  V30 32 N 10.194637 7.541583 -6.890338 0 CFG=1 CHG=1
M  V30 33 H 11.242178 6.170756 -8.122654 0
M  V30 34 H 12.197581 7.542601 -7.610347 0
M  V30 35 H 11.796510 5.557440 -3.270239 0
M  V30 36 H 10.580572 5.590227 -5.006788 0
M  V30 37 H 12.175284 5.990315 -5.613623 0
M  V30 38 H 8.217538 4.809988 -17.304539 0
M  V30 39 H 5.715667 6.406232 -13.485726 0
M  V30 40 H 5.219098 4.761305 -13.761451 0
M  V30 41 H 5.262903 5.401637 -12.117163 0
M  V30 42 H 11.497127 10.763064 -5.804119 0
M  V30 43 H 9.811940 5.161193 -14.977851 0
M  V30 44 H 8.575248 7.404498 -13.173346 0
M  V30 45 H 6.785172 0.656269 -19.177795 0
M  V30 46 H 8.004164 1.164078 -20.330502 0
M  V30 47 H 8.498605 0.650208 -18.716623 0
M  V30 48 H 7.687172 1.302990 -13.015918 0
M  V30 49 H 7.464376 5.733095 -10.874327 0
M  V30 50 H 8.947178 5.305911 -11.659679 0
M  V30 51 H 11.959262 8.355681 -3.525778 0
M  V30 52 H 7.135124 3.728442 -11.304239 0
M  V30 53 H 9.164955 5.661519 -6.827584 0
M  V30 54 H 8.178299 7.063169 -6.385034 0
M  V30 55 H 8.584862 6.779505 -8.053961 0
M  V30 56 H 9.829095 7.794384 -4.916296 0
M  V30 57 H 7.706345 5.917065 -14.804959 0
M  V30 58 H 9.775339 8.790229 -11.888727 0
M  V30 59 H 8.729493 8.706244 -10.524516 0
M  V30 60 H 6.763920 0.664192 -16.948686 0
M  V30 61 H 10.561088 9.037082 -9.003421 0
M  V30 62 H 10.175268 6.273206 -10.303909 0
M  V30 63 H 6.880349 7.990251 -11.035743 0
M  V30 64 H 9.426547 3.024418 -18.984322 0
M  V30 65 H 12.575408 7.133122 -10.236506 0
M  V30 66 H 12.070713 8.790886 -10.785015 0
M  V30 67 H 12.575400 8.790254 -5.787761 0
M  V30 68 H 9.898057 8.492130 -7.075680 0
M  V30 END ATOM
M  V30 BEGIN BOND
M  V30 1 1 4 3
M  V30 2 2 7 5
M  V30 3 1 7 6
M  V30 4 1 1 8 CFG=3
M  V30 5 1 14 1
M  V30 6 1 14 11
M  V30 7 1 15 13
M  V30 8 1 17 1
M  V30 9 1 19 5
M  V30 10 1 19 13
M  V30 11 2 19 15
M  V30 12 1 20 4
M  V30 13 1 21 13
M  V30 14 1 21 17
M  V30 15 1 22 1
M  V30 16 1 22 5
M  V30 17 1 22 10
M  V30 18 1 23 11
M  V30 19 2 24 6
M  V30 20 1 24 15
M  V30 21 1 25 2
M  V30 22 1 26 23
M  V30 23 1 26 25
M  V30 24 1 27 11
M  V30 25 1 29 25
M  V30 26 1 29 26
M  V30 27 1 30 9
M  V30 28 1 30 16
M  V30 29 1 30 20
M  V30 30 1 31 6
M  V30 31 1 31 12
M  V30 32 1 31 28
M  V30 33 1 32 2
M  V30 34 1 32 18
M  V30 35 1 32 20
M  V30 36 1 33 2
M  V30 37 1 34 2
M  V30 38 1 35 3
M  V30 39 1 36 4
M  V30 40 1 37 4
M  V30 41 1 38 7
M  V30 42 1 39 8
M  V30 43 1 40 8
M  V30 44 1 41 8
M  V30 45 1 42 9
M  V30 46 1 43 10
M  V30 47 1 11 44 CFG=3
M  V30 48 1 45 12
M  V30 49 1 46 12
M  V30 50 1 47 12
M  V30 51 1 13 48 CFG=1
M  V30 52 1 49 14
M  V30 53 1 50 14
M  V30 54 1 51 16
M  V30 55 1 52 17
M  V30 56 1 53 18
M  V30 57 1 54 18
M  V30 58 1 55 18
M  V30 59 1 20 56 CFG=1
M  V30 60 1 22 57 CFG=3
M  V30 61 1 58 23
M  V30 62 1 59 23
M  V30 63 1 60 24
M  V30 64 1 25 61 CFG=1
M  V30 65 1 26 62 CFG=1
M  V30 66 1 63 27
M  V30 67 1 64 28
M  V30 68 1 65 29
M  V30 69 1 66 29
M  V30 70 1 67 30
M  V30 71 1 32 68 CFG=3
M  V30 END BOND
M  V30 END CTAB
M  END
>  <i_epik_Tot_Q>  (1) 
1

>  <i_epik_Tot_abs_Q>  (1) 
1

>  <i_i_glide_confnum>  (1) 
4042

>  <i_i_glide_lignum>  (1) 
144

>  <i_i_glide_posenum>  (1) 
26

>  <i_i_glide_rotatable_bonds>  (1) 
16

>  <i_lp_mmshare_version>  (1) 
72125

>  <i_m_source_file_index>  (1) 
82

>  <i_f3d_flags>  (1) 
0

>  <num_sample>  (1) 
100

>  <b_lp_Chiralities_Consistent>  (1) 
1

>  <r_epik_Charging_Adjusted_Penalty>  (1) 
0.61642058797261945

>  <r_epik_Ionization_Penalty>  (1) 
0.30960007796245242

>  <r_epik_Ionization_Penalty_Charging>  (1) 
0.30821029398630978

>  <r_epik_Ionization_Penalty_Neutral>  (1) 
0.0013897839761426282

>  <r_epik_State_Penalty>  (1) 
0.30821029398630967

>  <r_glide_ring_energy>  (1) 
0

>  <r_i_docking_score>  (1) 
-4.3371905859292035

>  <r_i_glide_ecoul>  (1) 
-9.3851955188096614

>  <r_i_glide_eff_state_penalty>  (1) 
0.30821029398630967

>  <r_i_glide_einternal>  (1) 
19.602270331907249

>  <r_i_glide_emodel>  (1) 
-32.339893032563701

>  <r_i_glide_emodel_strain>  (1) 
7.48476643433969

>  <r_i_glide_energy>  (1) 
-39.861030770853951

>  <r_i_glide_erotb>  (1) 
0.97195684176611152

>  <r_i_glide_esite>  (1) 
0

>  <r_i_glide_evdw>  (1) 
-30.475835252044291

>  <r_i_glide_gscore>  (1) 
-4.6454008799155133

>  <r_i_glide_gscore_strain>  (1) 
0.87119160858492251

>  <r_i_glide_hbond>  (1) 
-0.16

>  <r_i_glide_ligand_efficiency>  (1) 
-0.13553720581028761

>  <r_i_glide_ligand_efficiency_ln>  (1) 
-0.97121519953969204

>  <r_i_glide_ligand_efficiency_sa>  (1) 
-0.43030380616816188

>  <r_i_glide_lipo>  (1) 
-1.8021030865979561

>  <r_i_glide_metal>  (1) 
-0

>  <r_i_glide_rewards>  (1) 
-1.5948751532449275

>  <r_lp_Energy>  (1) 
74.801774999999992

>  <s_epik_Chemistry_Notes>  (1) 
This compound contains an acetal/aminal-like group ( X-CH(R)-Y where X, Y are N, S, or O) that may be acid/base labile, releasing an aldehyde. This compound has a N-S or N-O group and may undergo hydrolysis at high or low pH.

>  <s_epik_cmdline>  (1) 
J2VwaWtfcHl0aG9uJywgJy1waHQnLCAnMS4wJywgJy1waCcsICc3LjQnLCAnLXRuJywgJzgnLCAnLW1hJywgJzUwMCcsICctaW1hZScsICc8aW5maWxlLm1hZT4nLCAnLW9tYWUnLCAnPG91dGZpbGUubWFlPic=

>  <s_epik_input>  (1) 
W0NIM11OKFtPSF0pYyhbY0hdMSlbY0hdYyhjMmMxMylbQ0BASF0yT1tOSF1bQ0BdKFtDSDNdKShbQ0BIXTNbT0hdKVtDSDJdW0NAQEhdKFtPSF0pW0NIMl1bQ0BASF0oW0NIMl00KVtDQEhdNFtDSDJdTihbQ0gzXSlbQ0BASF0oW0NIMl1bT0hdKVtDSF0oW09IXSlbT0hd

>  <s_glide_docking_method>  (1) 
confgen

>  <s_i_glide_gridfile>  (1) 
gpcr_drd2_6luq_protein_autoprepared_prepared

>  <s_lp_Force_Field>  (1) 
S-OPLS

>  <s_lp_Variant>  (1) 
DiffSBDD_81-2

>  <s_m_source_file>  (1) 
generated_generic_title2_ligand_DiffSBDD_2026-06-23_prepared.sdf

>  <GenAI_Model>  (1) 
DiffSBDD

>  <Protein>  (1) 
generic_title2

$$$$
DiffSBDD_7
     RDKit          3D

  0  0  0  0  0  0  0  0  0  0999 V3000
M  V30 BEGIN CTAB
M  V30 COUNTS 63 65 0 0 1
M  V30 BEGIN ATOM
M  V30 1 C 6.938020 5.573550 -15.568466 0
M  V30 2 C 7.795935 4.807128 -16.384926 0
M  V30 3 C 8.761663 4.205324 -18.655849 0
M  V30 4 C 12.966340 8.558915 -8.701274 0
M  V30 5 F 8.779628 2.939387 -18.237147 0
M  V30 6 C 10.380787 8.726103 -8.990489 0
M  V30 7 N 9.230485 5.877018 -11.163525 0
M  V30 8 C 11.469208 9.196235 -6.722460 0 CFG=1
M  V30 9 C 9.689879 7.426058 -6.901276 0 CFG=2
M  V30 10 C 6.898839 5.273900 -10.795970 0
M  V30 11 C 5.204519 4.329039 -12.358028 0
M  V30 12 C 5.413003 5.049845 -13.668406 0
M  V30 13 C 9.822072 7.407941 -8.438100 0 CFG=2
M  V30 14 C 11.016156 7.812692 -6.224544 0
M  V30 15 F 12.580799 9.589973 -6.099233 0
M  V30 16 C 7.841137 5.038168 -17.776625 0
M  V30 17 C 10.263699 6.429557 -12.045972 0
M  V30 18 F 8.362045 4.218236 -19.928527 0
M  V30 19 C 11.653541 9.224561 -8.259863 0 CFG=1
M  V30 20 S 7.554949 6.651245 -13.094893 0
M  V30 21 C 10.575367 6.222116 -9.029794 0
M  V30 22 C 5.448979 5.253980 -11.181480 0
M  V30 23 C 9.705110 5.294485 -9.900539 0
M  V30 24 C 6.861813 5.297215 -14.071618 0 CFG=2
M  V30 25 C 9.091881 6.118437 -6.369317 0
M  V30 26 C 6.131397 6.578581 -16.146533 0
M  V30 27 C 6.175236 6.806719 -17.533709 0
M  V30 28 F 9.997421 4.697748 -18.589922 0
M  V30 29 C 7.879422 5.848658 -11.530845 0
M  V30 30 C 7.028827 6.039778 -18.349083 0
M  V30 31 H 8.412955 4.035639 -15.947613 0
M  V30 32 H 13.089767 7.589790 -8.242019 0
M  V30 33 H 13.027466 8.452544 -9.784481 0
M  V30 34 H 13.823326 9.150987 -8.381047 0
M  V30 35 H 10.565794 8.648912 -10.061399 0
M  V30 36 H 9.573673 9.447981 -8.916016 0
M  V30 37 H 10.720998 9.925790 -6.412214 0
M  V30 38 H 8.972569 8.208820 -6.644906 0
M  V30 39 H 7.130707 4.795890 -9.864280 0
M  V30 40 H 4.174966 3.990238 -12.364850 0
M  V30 41 H 5.816307 3.428771 -12.289179 0
M  V30 42 H 4.845085 5.976078 -13.700936 0
M  V30 43 H 4.976049 4.390476 -14.385168 0
M  V30 44 H 8.816469 7.294585 -8.801269 0
M  V30 45 H 11.775654 7.056684 -6.420252 0
M  V30 46 H 10.886302 7.840811 -5.142609 0
M  V30 47 H 10.279409 5.887289 -12.992891 0
M  V30 48 H 10.060083 7.479720 -12.254798 0
M  V30 49 H 11.270907 6.390437 -11.644907 0
M  V30 50 H 11.775410 10.253766 -8.583817 0
M  V30 51 H 11.007026 5.623434 -8.234978 0
M  V30 52 H 11.424487 6.606212 -9.578834 0
M  V30 53 H 4.922971 4.875348 -10.314321 0
M  V30 54 H 5.077339 6.265329 -11.354400 0
M  V30 55 H 8.908397 4.992309 -9.233024 0
M  V30 56 H 10.175412 4.348591 -10.140951 0
M  V30 57 H 7.453601 4.405459 -13.861043 0
M  V30 58 H 9.524960 5.237215 -6.827311 0
M  V30 59 H 9.256968 6.014621 -5.298536 0
M  V30 60 H 8.020484 6.058119 -6.552688 0
M  V30 61 H 5.473854 7.168379 -15.525863 0
M  V30 62 H 5.554396 7.574406 -17.973396 0
M  V30 63 H 7.060091 6.220404 -19.413758 0
M  V30 END ATOM
M  V30 BEGIN BOND
M  V30 1 2 2 1
M  V30 2 1 5 3
M  V30 3 1 12 11
M  V30 4 1 13 6
M  V30 5 1 13 9
M  V30 6 1 14 8
M  V30 7 1 14 9
M  V30 8 1 15 8
M  V30 9 1 16 2
M  V30 10 1 16 3
M  V30 11 1 17 7
M  V30 12 1 18 3
M  V30 13 1 19 4
M  V30 14 1 19 6
M  V30 15 1 19 8
M  V30 16 1 21 13
M  V30 17 1 22 10
M  V30 18 1 22 11
M  V30 19 1 23 7
M  V30 20 1 23 21
M  V30 21 1 24 1
M  V30 22 1 24 12
M  V30 23 1 24 20
M  V30 24 1 25 9
M  V30 25 1 26 1
M  V30 26 2 27 26
M  V30 27 1 28 3
M  V30 28 1 29 7
M  V30 29 2 29 10
M  V30 30 1 29 20
M  V30 31 2 30 16
M  V30 32 1 30 27
M  V30 33 1 31 2
M  V30 34 1 32 4
M  V30 35 1 33 4
M  V30 36 1 34 4
M  V30 37 1 35 6
M  V30 38 1 36 6
M  V30 39 1 8 37 CFG=3
M  V30 40 1 9 38 CFG=3
M  V30 41 1 39 10
M  V30 42 1 40 11
M  V30 43 1 41 11
M  V30 44 1 42 12
M  V30 45 1 43 12
M  V30 46 1 13 44 CFG=3
M  V30 47 1 45 14
M  V30 48 1 46 14
M  V30 49 1 47 17
M  V30 50 1 48 17
M  V30 51 1 49 17
M  V30 52 1 19 50 CFG=3
M  V30 53 1 51 21
M  V30 54 1 52 21
M  V30 55 1 53 22
M  V30 56 1 54 22
M  V30 57 1 55 23
M  V30 58 1 56 23
M  V30 59 1 24 57 CFG=3
M  V30 60 1 58 25
M  V30 61 1 59 25
M  V30 62 1 60 25
M  V30 63 1 61 26
M  V30 64 1 62 27
M  V30 65 1 63 30
M  V30 END BOND
M  V30 END CTAB
M  END
>  <i_epik_Tot_Q>  (1) 
0

>  <i_epik_Tot_abs_Q>  (1) 
0

>  <i_i_glide_confnum>  (1) 
29

>  <i_i_glide_lignum>  (1) 
10

>  <i_i_glide_posenum>  (1) 
390

>  <i_i_glide_rotatable_bonds>  (1) 
6

>  <i_lp_mmshare_version>  (1) 
72125

>  <i_m_source_file_index>  (1) 
8

>  <i_f3d_flags>  (1) 
0

>  <num_sample>  (1) 
100

>  <b_lp_Chiralities_Consistent>  (1) 
1

>  <r_epik_Charging_Adjusted_Penalty>  (1) 
4.04831774087807e-08

>  <r_epik_Ionization_Penalty>  (1) 
4.3565120574992374e-05

>  <r_epik_Ionization_Penalty_Charging>  (1) 
4.04831774087807e-08

>  <r_epik_Ionization_Penalty_Neutral>  (1) 
4.3524637397583592e-05

>  <r_epik_State_Penalty>  (1) 
-0

>  <r_glide_ring_energy>  (1) 
1.6165069808172563

>  <r_i_docking_score>  (1) 
-4.3270869418750344

>  <r_i_glide_ecoul>  (1) 
0.43497600139887771

>  <r_i_glide_eff_state_penalty>  (1) 
-0

>  <r_i_glide_einternal>  (1) 
6.1866185459656986

>  <r_i_glide_emodel>  (1) 
-21.495715766940076

>  <r_i_glide_emodel_strain>  (1) 
1.1052040534141412

>  <r_i_glide_energy>  (1) 
-20.685119676905281

>  <r_i_glide_erotb>  (1) 
0.50801221273644082

>  <r_i_glide_esite>  (1) 
-0.011842331356243815

>  <r_i_glide_evdw>  (1) 
-21.120095678304157

>  <r_i_glide_gscore>  (1) 
-4.3270869418750344

>  <r_i_glide_gscore_strain>  (1) 
0

>  <r_i_glide_hbond>  (1) 
0

>  <r_i_glide_ligand_efficiency>  (1) 
-0.14423623139583447

>  <r_i_glide_ligand_efficiency_ln>  (1) 
-0.98316130058244899

>  <r_i_glide_ligand_efficiency_sa>  (1) 
-0.44817550672941947

>  <r_i_glide_lipo>  (1) 
-2.1154145289719848

>  <r_i_glide_metal>  (1) 
-0

>  <r_i_glide_rewards>  (1) 
-1.717083910577871

>  <r_lp_Energy>  (1) 
42.291399999999996

>  <r_lp_tautomer_probability>  (1) 
1

>  <s_epik_Chemistry_Notes>  (1) 
This compound has an imine and may undergo hydrolysis.

>  <s_epik_cmdline>  (1) 
J2VwaWtfcHl0aG9uJywgJy1waHQnLCAnMS4wJywgJy1waCcsICc3LjQnLCAnLXRuJywgJzgnLCAnLW1hJywgJzUwMCcsICctaW1hZScsICc8aW5maWxlLm1hZT4nLCAnLW9tYWUnLCAnPG91dGZpbGUubWFlPic=

>  <s_epik_input>  (1) 
W2NIXTFbY0hdW2NIXWMoQyhGKShGKUYpW2NIXWMxW0NAQEhdMltDSDJdW0NIMl1bQ0gyXVtDSF09QyhTMilOKFtDSDNdKVtDSDJdW0NIMl1bQ0BIXShbQ0gyXVtDQEBIXTNbQ0gzXSlbQ0BASF0oW0NIM10pW0NIMl1bQ0BIXTNG

>  <s_glide_docking_method>  (1) 
confgen

>  <s_i_glide_gridfile>  (1) 
gpcr_drd2_6luq_protein_autoprepared_prepared

>  <s_lp_Force_Field>  (1) 
S-OPLS

>  <s_lp_Variant>  (1) 
DiffSBDD_7-1

>  <s_m_source_file>  (1) 
generated_generic_title2_ligand_DiffSBDD_2026-06-23_prepared.sdf

>  <GenAI_Model>  (1) 
DiffSBDD

>  <Protein>  (1) 
generic_title2

$$$$
DiffSBDD_24
     RDKit          3D

  0  0  0  0  0  0  0  0  0  0999 V3000
M  V30 BEGIN CTAB
M  V30 COUNTS 68 69 0 0 1
M  V30 BEGIN ATOM
M  V30 1 C 9.254968 5.164716 -13.576631 0
M  V30 2 C 8.376758 7.668449 -20.939486 0
M  V30 3 C 4.614340 7.033699 -18.850569 0
M  V30 4 O 7.806988 6.750108 -20.073530 0
M  V30 5 C 4.575384 7.338088 -16.324486 0
M  V30 6 C 9.581724 8.550515 -9.729798 0
M  V30 7 C 9.359391 6.714542 -11.560939 0 CFG=2
M  V30 8 C 5.459907 7.204944 -20.117927 0
M  V30 9 C 7.706508 8.348731 -21.911264 0
M  V30 10 C 5.416542 7.378052 -17.592418 0
M  V30 11 C 6.626365 6.980760 -12.946756 0 CFG=1
M  V30 12 C 7.921514 3.314883 -12.367408 0
M  V30 13 C 8.299847 2.081939 -13.192587 0
M  V30 14 C 5.293094 8.203129 -21.012604 0
M  V30 15 C 10.095644 7.199110 -10.269292 0
M  V30 16 O 8.104348 6.145635 -11.185077 0
M  V30 17 C 6.538585 6.172002 -20.319865 0
M  V30 18 C 7.886841 4.659854 -13.105342 0 CFG=1
M  V30 19 C 5.829753 6.614919 -14.224499 0
M  V30 20 C 5.329415 7.794807 -15.060355 0
M  V30 21 C 6.213586 8.243592 -22.231686 0
M  V30 22 C 4.246178 9.228202 -20.811252 0
M  V30 23 C 10.106512 5.648108 -12.394195 0
M  V30 24 O 11.446972 7.466633 -10.598270 0
M  V30 25 C 4.014084 10.242416 -21.666947 0
M  V30 26 O 5.775407 7.590016 -11.985025 0
M  V30 27 C 7.204642 5.740634 -12.221569 0 CFG=2
M  V30 28 C 10.038248 6.146235 -9.143083 0
M  V30 29 H 9.775557 4.390284 -14.135493 0
M  V30 30 H 9.092039 5.986435 -14.272000 0
M  V30 31 H 9.434879 7.784436 -20.756556 0
M  V30 32 H 4.305038 5.990330 -18.801399 0
M  V30 33 H 3.679014 7.579120 -18.824088 0
M  V30 34 H 4.175326 6.332335 -16.196316 0
M  V30 35 H 3.711350 7.990069 -16.460909 0
M  V30 36 H 8.975411 8.420857 -8.836945 0
M  V30 37 H 10.395000 9.204566 -9.415500 0
M  V30 38 H 8.975360 9.087973 -10.458113 0
M  V30 39 H 9.220536 7.586977 -12.196494 0
M  V30 40 H 8.264378 9.037002 -22.530707 0
M  V30 41 H 5.775408 8.390233 -17.690073 0
M  V30 42 H 6.290424 6.733113 -17.493067 0
M  V30 43 H 7.401641 7.687326 -13.233641 0
M  V30 44 H 8.575428 3.387212 -11.499195 0
M  V30 45 H 6.916502 3.136364 -11.985136 0
M  V30 46 H 7.865917 1.181280 -12.758305 0
M  V30 47 H 7.952961 2.150577 -14.223314 0
M  V30 48 H 9.375377 1.932922 -13.184985 0
M  V30 49 H 6.399901 5.343360 -19.625056 0
M  V30 50 H 6.498771 5.731519 -21.316443 0
M  V30 51 H 7.280273 4.442361 -13.979532 0
M  V30 52 H 6.466720 6.065071 -14.913070 0
M  V30 53 H 5.001471 5.954065 -13.965061 0
M  V30 54 H 4.650148 8.390203 -14.451245 0
M  V30 55 H 6.162227 8.443863 -15.327568 0
M  V30 56 H 6.051778 7.346691 -22.830088 0
M  V30 57 H 6.007853 9.051753 -22.921937 0
M  V30 58 H 3.627322 9.177072 -19.938039 0
M  V30 59 H 11.046793 6.048397 -12.771115 0
M  V30 60 H 10.358040 4.787521 -11.779233 0
M  V30 61 H 11.466429 8.204203 -11.185906 0
M  V30 62 H 3.233760 10.961126 -21.465049 0
M  V30 63 H 4.585976 10.372206 -22.567155 0
M  V30 64 H 6.218114 7.590288 -11.131745 0
M  V30 65 H 6.361687 5.259606 -11.721863 0
M  V30 66 H 9.055357 6.145157 -8.669640 0
M  V30 67 H 10.175410 5.132881 -9.510687 0
M  V30 68 H 10.774885 6.342317 -8.363557 0
M  V30 END ATOM
M  V30 BEGIN BOND
M  V30 1 1 4 2
M  V30 2 1 8 3
M  V30 3 2 9 2
M  V30 4 1 10 3
M  V30 5 1 10 5
M  V30 6 1 13 12
M  V30 7 2 14 8
M  V30 8 1 15 6
M  V30 9 1 15 7
M  V30 10 1 16 7
M  V30 11 1 17 4
M  V30 12 1 17 8
M  V30 13 1 18 1
M  V30 14 1 18 12
M  V30 15 1 19 11
M  V30 16 1 20 5
M  V30 17 1 20 19
M  V30 18 1 21 9
M  V30 19 1 21 14
M  V30 20 1 22 14
M  V30 21 1 23 1
M  V30 22 1 23 7
M  V30 23 1 24 15
M  V30 24 2 25 22
M  V30 25 1 26 11
M  V30 26 1 27 11
M  V30 27 1 27 16
M  V30 28 1 27 18
M  V30 29 1 28 15
M  V30 30 1 29 1
M  V30 31 1 30 1
M  V30 32 1 31 2
M  V30 33 1 32 3
M  V30 34 1 33 3
M  V30 35 1 34 5
M  V30 36 1 35 5
M  V30 37 1 36 6
M  V30 38 1 37 6
M  V30 39 1 38 6
M  V30 40 1 7 39 CFG=3
M  V30 41 1 40 9
M  V30 42 1 41 10
M  V30 43 1 42 10
M  V30 44 1 11 43 CFG=3
M  V30 45 1 44 12
M  V30 46 1 45 12
M  V30 47 1 46 13
M  V30 48 1 47 13
M  V30 49 1 48 13
M  V30 50 1 49 17
M  V30 51 1 50 17
M  V30 52 1 18 51 CFG=3
M  V30 53 1 52 19
M  V30 54 1 53 19
M  V30 55 1 54 20
M  V30 56 1 55 20
M  V30 57 1 56 21
M  V30 58 1 57 21
M  V30 59 1 58 22
M  V30 60 1 59 23
M  V30 61 1 60 23
M  V30 62 1 61 24
M  V30 63 1 62 25
M  V30 64 1 63 25
M  V30 65 1 64 26
M  V30 66 1 27 65 CFG=1
M  V30 67 1 66 28
M  V30 68 1 67 28
M  V30 69 1 68 28
M  V30 END BOND
M  V30 END CTAB
M  END
>  <i_epik_Tot_Q>  (1) 
0

>  <i_epik_Tot_abs_Q>  (1) 
0

>  <i_i_glide_confnum>  (1) 
197

>  <i_i_glide_lignum>  (1) 
42

>  <i_i_glide_posenum>  (1) 
389

>  <i_i_glide_rotatable_bonds>  (1) 
12

>  <i_lp_mmshare_version>  (1) 
72125

>  <i_m_source_file_index>  (1) 
25

>  <i_f3d_flags>  (1) 
0

>  <num_sample>  (1) 
100

>  <b_lp_Chiralities_Consistent>  (1) 
1

>  <r_epik_Charging_Adjusted_Penalty>  (1) 
0

>  <r_epik_Ionization_Penalty>  (1) 
1.101119789916782e-07

>  <r_epik_Ionization_Penalty_Charging>  (1) 
0

>  <r_epik_Ionization_Penalty_Neutral>  (1) 
1.101119789916782e-07

>  <r_epik_State_Penalty>  (1) 
-0

>  <r_glide_ring_energy>  (1) 
1.2053301093634785

>  <r_i_docking_score>  (1) 
-4.3195446972372284

>  <r_i_glide_ecoul>  (1) 
-2.4873707128811149

>  <r_i_glide_eff_state_penalty>  (1) 
-0

>  <r_i_glide_einternal>  (1) 
5.518774053081831

>  <r_i_glide_emodel>  (1) 
-27.803748568307348

>  <r_i_glide_emodel_strain>  (1) 
3.4212791762098078

>  <r_i_glide_energy>  (1) 
-27.619724649947219

>  <r_i_glide_erotb>  (1) 
1.1402384900908482

>  <r_i_glide_esite>  (1) 
0

>  <r_i_glide_evdw>  (1) 
-25.132353937066103

>  <r_i_glide_gscore>  (1) 
-4.3195446972372284

>  <r_i_glide_gscore_strain>  (1) 
0

>  <r_i_glide_hbond>  (1) 
-0.16

>  <r_i_glide_ligand_efficiency>  (1) 
-0.15426945347275817

>  <r_i_glide_ligand_efficiency_ln>  (1) 
-0.99707774346565559

>  <r_i_glide_ligand_efficiency_sa>  (1) 
-0.46845292111266312

>  <r_i_glide_lipo>  (1) 
-2.3583349319817408

>  <r_i_glide_metal>  (1) 
-0

>  <r_i_glide_rewards>  (1) 
-1.3117249515608629

>  <r_lp_Energy>  (1) 
28.105841999999999

>  <r_lp_tautomer_probability>  (1) 
1

>  <s_epik_cmdline>  (1) 
J2VwaWtfcHl0aG9uJywgJy1waHQnLCAnMS4wJywgJy1waCcsICc3LjQnLCAnLXRuJywgJzgnLCAnLW1hJywgJzUwMCcsICctaW1hZScsICc8aW5maWxlLm1hZT4nLCAnLW9tYWUnLCAnPG91dGZpbGUubWFlPic=

>  <s_epik_input>  (1) 
W0NIM11DKFtPSF0pKFtDSDNdKVtDQEBIXTFPW0NASF0oW0NAQEhdKFtDSDJdW0NIMl0xKVtDSDJdW0NIM10pW0NASF0oW09IXSlbQ0gyXVtDSDJdW0NIMl1bQ0gyXVtDSDJdQzI9QyhbQ0hdPVtDSDJdKVtDSDJdW0NIXT1bQ0hdT1tDSDJdMg==

>  <s_glide_docking_method>  (1) 
confgen

>  <s_i_glide_gridfile>  (1) 
gpcr_drd2_6luq_protein_autoprepared_prepared

>  <s_lp_Force_Field>  (1) 
S-OPLS

>  <s_lp_Variant>  (1) 
DiffSBDD_24-1

>  <s_m_source_file>  (1) 
generated_generic_title2_ligand_DiffSBDD_2026-06-23_prepared.sdf

>  <GenAI_Model>  (1) 
DiffSBDD

>  <Protein>  (1) 
generic_title2

$$$$
DiffSBDD_8
     RDKit          3D

  0  0  0  0  0  0  0  0  0  0999 V3000
M  V30 BEGIN CTAB
M  V30 COUNTS 61 63 0 0 1
M  V30 BEGIN ATOM
M  V30 1 C 9.233070 6.102448 -9.948895 0
M  V30 2 O 11.778978 8.936568 -7.833008 0
M  V30 3 C 9.084352 4.942916 -17.578101 0
M  V30 4 N 10.745915 8.590335 -5.887901 0
M  V30 5 C 6.480050 3.375779 -14.102150 0 CFG=2
M  V30 6 C 8.941633 5.124086 -14.760517 0
M  V30 7 N 9.374529 6.390238 -6.841496 0
M  V30 8 C 7.450531 -0.187514 -14.071594 0
M  V30 9 C 5.249401 0.805715 -13.334019 0
M  V30 10 O 6.842698 2.239538 -16.164063 0
M  V30 11 C 7.859102 4.741234 -16.921015 0
M  V30 12 C 8.575292 0.362957 -13.184966 0
M  V30 13 O 6.585166 4.556638 -14.883471 0
M  V30 14 S 10.327319 5.990486 -12.426589 0
M  V30 15 C 6.947155 3.695899 -12.671039 0
M  V30 16 C 8.846727 5.268719 -13.228458 0 CFG=2
M  V30 17 N 9.600442 6.874965 -11.133130 0 CFG=2 CHG=1
M  V30 18 F 9.149370 4.863864 -18.928096 0
M  V30 19 C 7.980955 1.647036 -16.781807 0
M  V30 20 C 10.570487 7.619521 -10.324620 0
M  V30 21 C 8.455220 3.943513 -12.579184 0
M  V30 22 C 9.742265 7.263806 -9.095565 0 CFG=2
M  V30 23 C 6.347291 0.831558 -14.405189 0 CFG=1
M  V30 24 N 6.976483 2.129298 -14.727794 0
M  V30 25 C 11.021012 8.258029 -7.148037 0
M  V30 26 C 10.242268 5.218044 -16.835333 0
M  V30 27 C 10.175524 5.311762 -15.433647 0
M  V30 28 C 7.785324 4.807917 -15.512106 0
M  V30 29 C 10.380287 6.985450 -7.725774 0 CFG=1
M  V30 30 H 8.162051 5.921401 -9.859355 0
M  V30 31 H 9.803138 5.182622 -9.814219 0
M  V30 32 H 11.169025 9.410309 -5.481396 0
M  V30 33 H 10.108905 8.024634 -5.348917 0
M  V30 34 H 5.402287 3.292261 -13.985200 0
M  V30 35 H 9.721199 6.149894 -5.924076 0
M  V30 36 H 8.531196 6.948443 -6.746429 0
M  V30 37 H 6.975153 -1.038955 -13.586081 0
M  V30 38 H 7.895476 -0.588047 -14.980097 0
M  V30 39 H 4.812208 -0.190454 -13.265457 0
M  V30 40 H 5.638060 1.036403 -12.345572 0
M  V30 41 H 4.422812 1.467934 -13.585026 0
M  V30 42 H 6.973900 4.513053 -17.495944 0
M  V30 43 H 9.304628 -0.405762 -12.909017 0
M  V30 44 H 9.130761 1.134979 -13.698802 0
M  V30 45 H 8.154875 0.799508 -12.285214 0
M  V30 46 H 6.389066 4.559088 -12.305603 0
M  V30 47 H 6.666302 2.870886 -12.025962 0
M  V30 48 H 8.054413 5.997823 -13.053155 0
M  V30 49 H 8.026867 1.968878 -17.822012 0
M  V30 50 H 8.915100 1.946872 -16.303401 0
M  V30 51 H 7.915312 0.561202 -16.797906 0
M  V30 52 H 11.573035 7.190057 -10.306097 0
M  V30 53 H 10.606079 8.685962 -10.541655 0
M  V30 54 H 8.707319 3.961267 -11.520656 0
M  V30 55 H 9.040581 3.133142 -12.999205 0
M  V30 56 H 8.975422 8.031158 -8.996006 0
M  V30 57 H 5.847389 0.467098 -15.304589 0
M  V30 58 H 11.184468 5.370701 -17.341900 0
M  V30 59 H 11.066477 5.548327 -14.878593 0
M  V30 60 H 11.184773 6.260042 -7.848824 0
M  V30 61 H 8.824980 7.475169 -11.385159 0
M  V30 END ATOM
M  V30 BEGIN BOND
M  V30 1 2 11 3
M  V30 2 1 12 8
M  V30 3 1 13 5
M  V30 4 1 15 5
M  V30 5 1 16 6
M  V30 6 1 16 14
M  V30 7 1 17 1
M  V30 8 1 17 14
M  V30 9 1 18 3
M  V30 10 1 19 10
M  V30 11 1 20 17
M  V30 12 1 21 15
M  V30 13 1 21 16
M  V30 14 1 22 1
M  V30 15 1 22 20
M  V30 16 1 23 8
M  V30 17 1 23 9
M  V30 18 1 24 5
M  V30 19 1 24 10
M  V30 20 1 24 23
M  V30 21 2 25 2
M  V30 22 1 25 4
M  V30 23 1 26 3
M  V30 24 1 27 6
M  V30 25 2 27 26
M  V30 26 2 28 6
M  V30 27 1 28 11
M  V30 28 1 28 13
M  V30 29 1 29 7
M  V30 30 1 29 22
M  V30 31 1 29 25
M  V30 32 1 30 1
M  V30 33 1 31 1
M  V30 34 1 32 4
M  V30 35 1 33 4
M  V30 36 1 5 34 CFG=1
M  V30 37 1 35 7
M  V30 38 1 36 7
M  V30 39 1 37 8
M  V30 40 1 38 8
M  V30 41 1 39 9
M  V30 42 1 40 9
M  V30 43 1 41 9
M  V30 44 1 42 11
M  V30 45 1 43 12
M  V30 46 1 44 12
M  V30 47 1 45 12
M  V30 48 1 46 15
M  V30 49 1 47 15
M  V30 50 1 16 48 CFG=3
M  V30 51 1 49 19
M  V30 52 1 50 19
M  V30 53 1 51 19
M  V30 54 1 52 20
M  V30 55 1 53 20
M  V30 56 1 54 21
M  V30 57 1 55 21
M  V30 58 1 22 56 CFG=1
M  V30 59 1 23 57 CFG=3
M  V30 60 1 58 26
M  V30 61 1 59 27
M  V30 62 1 29 60 CFG=3
M  V30 63 1 17 61 CFG=3
M  V30 END BOND
M  V30 END CTAB
M  END
>  <i_epik_Tot_Q>  (1) 
1

>  <i_epik_Tot_abs_Q>  (1) 
1

>  <i_i_glide_confnum>  (1) 
346

>  <i_i_glide_lignum>  (1) 
12

>  <i_i_glide_posenum>  (1) 
247

>  <i_i_glide_rotatable_bonds>  (1) 
8

>  <i_lp_mmshare_version>  (1) 
72125

>  <i_m_source_file_index>  (1) 
9

>  <i_f3d_flags>  (1) 
0

>  <num_sample>  (1) 
100

>  <b_lp_Chiralities_Consistent>  (1) 
1

>  <r_epik_Charging_Adjusted_Penalty>  (1) 
0.26758124344448359

>  <r_epik_Ionization_Penalty>  (1) 
0.27573061112751834

>  <r_epik_Ionization_Penalty_Charging>  (1) 
0.017350130917063531

>  <r_epik_Ionization_Penalty_Neutral>  (1) 
0.25838048021045479

>  <r_epik_State_Penalty>  (1) 
0.25023111252742003

>  <r_glide_ring_energy>  (1) 
0.26704679568135009

>  <r_i_docking_score>  (1) 
-4.3157293754833983

>  <r_i_glide_ecoul>  (1) 
-4.9103679694345201

>  <r_i_glide_eff_state_penalty>  (1) 
0.25023111252742003

>  <r_i_glide_einternal>  (1) 
8.342473243178155

>  <r_i_glide_emodel>  (1) 
-38.367755338612817

>  <r_i_glide_emodel_strain>  (1) 
1.6397143478815579

>  <r_i_glide_energy>  (1) 
-31.201189562564828

>  <r_i_glide_erotb>  (1) 
0.54307168116637361

>  <r_i_glide_esite>  (1) 
-0.060257522508221431

>  <r_i_glide_evdw>  (1) 
-26.290821593130307

>  <r_i_glide_gscore>  (1) 
-4.565960488010818

>  <r_i_glide_gscore_strain>  (1) 
0

>  <r_i_glide_hbond>  (1) 
-0.013199242070155054

>  <r_i_glide_ligand_efficiency>  (1) 
-0.14881825432701373

>  <r_i_glide_ligand_efficiency_ln>  (1) 
-0.98819258953125788

>  <r_i_glide_ligand_efficiency_sa>  (1) 
-0.45721682673808001

>  <r_i_glide_lipo>  (1) 
-1.3712526930823563

>  <r_i_glide_metal>  (1) 
-0

>  <r_i_glide_rewards>  (1) 
-1.6132264364447657

>  <r_lp_Energy>  (1) 
41.451684999999998

>  <r_lp_tautomer_probability>  (1) 
1

>  <s_epik_Chemistry_Notes>  (1) 
This compound contains an acetal/aminal-like group ( X-CH(R)-Y where X, Y are N, S, or O) that may be acid/base labile, releasing an aldehyde. This compound has a N-S or N-O group and may undergo hydrolysis at high or low pH.

>  <s_epik_cmdline>  (1) 
J2VwaWtfcHl0aG9uJywgJy1waHQnLCAnMS4wJywgJy1waCcsICc3LjQnLCAnLXRuJywgJzgnLCAnLW1hJywgJzUwMCcsICctaW1hZScsICc8aW5maWxlLm1hZT4nLCAnLW9tYWUnLCAnPG91dGZpbGUubWFlPic=

>  <s_epik_input>  (1) 
Tz1DKFtOSDJdKVtDQEBIXShbTkgyXSlbQ0hdKFtDSDJdMSlbQ0gyXU4xU1tDQEBIXTJbQ0gyXVtDSDJdW0NASF0oTihPW0NIM10pW0NASF0oW0NIM10pW0NIMl1bQ0gzXSlPYyhjMjMpW2NIXWMoRilbY0hdW2NIXTM=

>  <s_glide_docking_method>  (1) 
confgen

>  <s_i_glide_gridfile>  (1) 
gpcr_drd2_6luq_protein_autoprepared_prepared

>  <s_lp_Force_Field>  (1) 
S-OPLS

>  <s_lp_Variant>  (1) 
DiffSBDD_8-2

>  <s_m_source_file>  (1) 
generated_generic_title2_ligand_DiffSBDD_2026-06-23_prepared.sdf

>  <GenAI_Model>  (1) 
DiffSBDD

>  <Protein>  (1) 
generic_title2

$$$$
DiffSBDD_20
     RDKit          3D

  0  0  0  0  0  0  0  0  0  0999 V3000
M  V30 BEGIN CTAB
M  V30 COUNTS 63 66 0 0 1
M  V30 BEGIN ATOM
M  V30 1 C 8.983818 5.190203 -9.002918 0
M  V30 2 C 6.540740 6.171764 -19.870773 0 CFG=2
M  V30 3 O 5.232434 8.525784 -23.021611 0
M  V30 4 O 8.441380 4.029033 -17.518827 0
M  V30 5 C 7.411932 7.282108 -20.463372 0
M  V30 6 O 7.385880 10.329598 -22.579685 0
M  V30 7 C 5.459389 6.592409 -18.884134 0 CFG=2
M  V30 8 C 9.775416 7.128944 -10.893230 0
M  V30 9 N 6.723133 5.544378 -16.983264 0
M  V30 10 C 4.570264 8.068756 -20.846561 0
M  V30 11 C 9.822065 7.961316 -23.516645 0
M  V30 12 C 9.775302 6.216280 -8.658391 0
M  V30 13 C 10.184109 7.227538 -9.612021 0
M  V30 14 C 7.197401 5.670058 -15.599082 0
M  V30 15 C 11.063821 8.380686 -9.171794 0
M  V30 16 C 4.780595 7.877664 -19.347533 0
M  V30 17 C 7.797063 5.206358 -17.898438 0 CFG=2
M  V30 18 C 6.981535 8.205260 -21.368025 0
M  V30 19 C 7.985764 9.189622 -21.985324 0 CFG=1
M  V30 20 C 7.329639 4.961994 -19.340875 0
M  V30 21 C 8.912866 6.026520 -11.433172 0 CFG=2
M  V30 22 C 5.998587 6.737371 -17.438712 0
M  V30 23 C 5.560320 8.261650 -21.748390 0
M  V30 24 C 8.013086 6.341644 -12.627751 0 CFG=2
M  V30 25 C 8.957448 8.533984 -22.873578 0
M  V30 26 C 8.439257 4.985932 -10.404058 0
M  V30 27 S 5.879455 6.101747 -14.420607 0
M  V30 28 C 9.774031 4.208730 -17.056690 0
M  V30 29 C 6.651750 5.692055 -12.825852 0
M  V30 30 C 9.261819 5.523800 -12.821768 0
M  V30 31 H 8.699729 4.460035 -8.259731 0
M  V30 32 H 6.016147 5.774551 -20.741448 0
M  V30 33 H 4.290618 8.551002 -23.080132 0
M  V30 34 H 8.456187 7.263752 -20.187789 0
M  V30 35 H 7.835041 10.505672 -23.397429 0
M  V30 36 H 4.707896 5.801580 -18.876004 0
M  V30 37 H 10.082337 7.885771 -11.600308 0
M  V30 38 H 3.543893 8.119487 -21.176185 0
M  V30 39 H 10.607001 7.447299 -24.020816 0
M  V30 40 H 10.115981 6.292317 -7.636484 0
M  V30 41 H 7.598214 4.706603 -15.283340 0
M  V30 42 H 8.008986 6.390196 -15.524716 0
M  V30 43 H 10.712467 8.783572 -8.221246 0
M  V30 44 H 12.091044 8.039560 -9.043066 0
M  V30 45 H 11.064409 9.190160 -9.900677 0
M  V30 46 H 3.819355 7.990169 -18.844764 0
M  V30 47 H 5.375397 8.731505 -19.020326 0
M  V30 48 H 8.516479 6.028107 -17.903184 0
M  V30 49 H 8.597761 9.590160 -21.185009 0
M  V30 50 H 6.691744 4.076246 -19.340072 0
M  V30 51 H 8.190669 4.737651 -19.971776 0
M  V30 52 H 5.147007 6.947937 -16.793396 0
M  V30 53 H 6.665140 7.590185 -17.364472 0
M  V30 54 H 8.044600 7.378484 -12.958459 0
M  V30 55 H 7.352714 5.011353 -10.325796 0
M  V30 56 H 8.716634 3.990240 -10.745693 0
M  V30 57 H 10.200928 3.243103 -16.786145 0
M  V30 58 H 10.401058 4.645100 -17.835063 0
M  V30 59 H 9.818977 4.850497 -16.176507 0
M  V30 60 H 5.983498 6.025335 -12.031129 0
M  V30 61 H 6.737605 4.608379 -12.740587 0
M  V30 62 H 9.145053 4.460572 -13.023204 0
M  V30 63 H 10.097907 5.990345 -13.337613 0
M  V30 END ATOM
M  V30 BEGIN BOND
M  V30 1 1 5 2
M  V30 2 1 7 2
M  V30 3 2 12 1
M  V30 4 2 13 8
M  V30 5 1 13 12
M  V30 6 1 14 9
M  V30 7 1 15 13
M  V30 8 1 16 7
M  V30 9 1 16 10
M  V30 10 1 17 4
M  V30 11 1 17 9
M  V30 12 2 18 5
M  V30 13 1 19 6
M  V30 14 1 19 18
M  V30 15 1 20 2
M  V30 16 1 20 17
M  V30 17 1 21 8
M  V30 18 1 22 7
M  V30 19 1 22 9
M  V30 20 1 23 3
M  V30 21 2 23 10
M  V30 22 1 23 18
M  V30 23 1 24 21
M  V30 24 3 25 11
M  V30 25 1 25 19
M  V30 26 1 26 1
M  V30 27 1 21 26 CFG=1
M  V30 28 1 27 14
M  V30 29 1 28 4
M  V30 30 1 29 24
M  V30 31 1 29 27
M  V30 32 1 30 21
M  V30 33 1 30 24
M  V30 34 1 31 1
M  V30 35 1 2 32 CFG=3
M  V30 36 1 33 3
M  V30 37 1 34 5
M  V30 38 1 35 6
M  V30 39 1 7 36 CFG=1
M  V30 40 1 37 8
M  V30 41 1 38 10
M  V30 42 1 39 11
M  V30 43 1 40 12
M  V30 44 1 41 14
M  V30 45 1 42 14
M  V30 46 1 43 15
M  V30 47 1 44 15
M  V30 48 1 45 15
M  V30 49 1 46 16
M  V30 50 1 47 16
M  V30 51 1 17 48 CFG=3
M  V30 52 1 19 49 CFG=1
M  V30 53 1 50 20
M  V30 54 1 51 20
M  V30 55 1 52 22
M  V30 56 1 53 22
M  V30 57 1 24 54 CFG=3
M  V30 58 1 55 26
M  V30 59 1 56 26
M  V30 60 1 57 28
M  V30 61 1 58 28
M  V30 62 1 59 28
M  V30 63 1 60 29
M  V30 64 1 61 29
M  V30 65 1 62 30
M  V30 66 1 63 30
M  V30 END BOND
M  V30 END CTAB
M  END
>  <i_epik_Tot_Q>  (1) 
0

>  <i_epik_Tot_abs_Q>  (1) 
0

>  <i_i_glide_confnum>  (1) 
109

>  <i_i_glide_lignum>  (1) 
37

>  <i_i_glide_posenum>  (1) 
300

>  <i_i_glide_rotatable_bonds>  (1) 
9

>  <i_lp_mmshare_version>  (1) 
72125

>  <i_m_source_file_index>  (1) 
21

>  <i_f3d_flags>  (1) 
0

>  <num_sample>  (1) 
100

>  <b_lp_Chiralities_Consistent>  (1) 
1

>  <r_epik_Charging_Adjusted_Penalty>  (1) 
0.01950513855595163

>  <r_epik_Ionization_Penalty>  (1) 
0.020135141086582313

>  <r_epik_Ionization_Penalty_Charging>  (1) 
0

>  <r_epik_Ionization_Penalty_Neutral>  (1) 
0.020135141086582313

>  <r_epik_State_Penalty>  (1) 
0.01950513855595163

>  <r_glide_ring_energy>  (1) 
0

>  <r_i_docking_score>  (1) 
-4.314702755934503

>  <r_i_glide_ecoul>  (1) 
-1.842597217334603

>  <r_i_glide_eff_state_penalty>  (1) 
0.01950513855595163

>  <r_i_glide_einternal>  (1) 
7.4531958512155896

>  <r_i_glide_emodel>  (1) 
-38.30027656561218

>  <r_i_glide_emodel_strain>  (1) 
1.0214119000677755

>  <r_i_glide_energy>  (1) 
-36.451307744655281

>  <r_i_glide_erotb>  (1) 
0.65156125310283941

>  <r_i_glide_esite>  (1) 
0

>  <r_i_glide_evdw>  (1) 
-34.608710527320682

>  <r_i_glide_gscore>  (1) 
-4.3342078944904543

>  <r_i_glide_gscore_strain>  (1) 
0

>  <r_i_glide_hbond>  (1) 
0

>  <r_i_glide_ligand_efficiency>  (1) 
-0.14382342519781677

>  <r_i_glide_ligand_efficiency_ln>  (1) 
-0.98034747860024685

>  <r_i_glide_ligand_efficiency_sa>  (1) 
-0.44689282189227963

>  <r_i_glide_lipo>  (1) 
-1.7676178613431315

>  <r_i_glide_metal>  (1) 
-0

>  <r_i_glide_rewards>  (1) 
-1.2113261772839377

>  <r_lp_Energy>  (1) 
31.117341

>  <s_epik_Chemistry_Notes>  (1) 
This compound contains an acetal/aminal-like group ( X-CH(R)-Y where X, Y are N, S, or O) that may be acid/base labile, releasing an aldehyde.

>  <s_epik_cmdline>  (1) 
J2VwaWtfcHl0aG9uJywgJy1waHQnLCAnMS4wJywgJy1waCcsICc3LjQnLCAnLXRuJywgJzgnLCAnLW1hJywgJzUwMCcsICctaW1hZScsICc8aW5maWxlLm1hZT4nLCAnLW9tYWUnLCAnPG91dGZpbGUubWFlPic=

>  <s_epik_input>  (1) 
W0NIMl0xW0NIXT1bQ0hdQyhbQ0gzXSk9W0NIXVtDQF0xMltDQEBIXShbQ0gyXTIpW0NIMl1TW0NIMl1OKFtDQEhdKFtDSDJdMylPW0NIM10pW0NIMl1bQ0BIXShbQ0BIXTM0KVtDSDJdW0NIXT1DKFtPSF0pQyg9W0NIXTQpW0NASF0oW09IXSlDI1tDSF0=

>  <s_glide_docking_method>  (1) 
confgen

>  <s_i_glide_gridfile>  (1) 
gpcr_drd2_6luq_protein_autoprepared_prepared

>  <s_lp_Force_Field>  (1) 
S-OPLS

>  <s_lp_Variant>  (1) 
DiffSBDD_20-1

>  <s_m_source_file>  (1) 
generated_generic_title2_ligand_DiffSBDD_2026-06-23_prepared.sdf

>  <GenAI_Model>  (1) 
DiffSBDD

>  <Protein>  (1) 
generic_title2

$$$$
DiffSBDD_94
     RDKit          3D

  0  0  0  0  0  0  0  0  0  0999 V3000
M  V30 BEGIN CTAB
M  V30 COUNTS 66 70 0 0 1
M  V30 BEGIN ATOM
M  V30 1 C 6.609608 7.050196 -12.968741 0
M  V30 2 C 9.938525 8.194832 -10.330727 0
M  V30 3 O 12.975417 7.318428 -3.184925 0
M  V30 4 C 7.916088 7.420016 -12.261065 0
M  V30 5 C 11.775415 7.505641 -3.910476 0 CFG=1
M  V30 6 N 6.832645 2.033536 -19.044155 0
M  V30 7 C 6.100053 2.547367 -20.067702 0
M  V30 8 C 6.683254 5.676427 -13.609472 0 CFG=2
M  V30 9 C 7.234942 4.206459 -18.274515 0
M  V30 10 C 11.267395 6.468639 -4.905173 0 CFG=1
M  V30 11 Cl 5.774667 4.383185 -11.404136 0
M  V30 12 C 10.858653 6.354561 -3.482672 0
M  V30 13 C 7.880423 5.072802 -17.201050 0 CFG=2
M  V30 14 C 9.676763 6.480171 -9.265761 0
M  V30 15 C 9.786238 6.746244 -10.774018 0 CFG=1
M  V30 16 C 7.100210 4.637277 -12.559926 0 CFG=2
M  V30 17 C 11.182518 8.076714 -6.735098 0 CFG=1
M  V30 18 C 9.412704 4.957051 -17.205026 0
M  V30 19 C 5.905127 3.926529 -20.246810 0
M  V30 20 O 9.005965 4.107328 -11.215539 0
M  V30 21 N 7.403781 2.863120 -18.147586 0
M  V30 22 N 10.564707 7.642199 -9.137182 0 CFG=2 CHG=1
M  V30 23 C 10.389885 6.992330 -5.998528 0
M  V30 24 N 8.638109 6.312114 -11.584859 0
M  V30 25 F 12.175389 5.590242 -5.443550 0
M  V30 26 C 10.454456 8.557875 -7.988316 0
M  V30 27 C 6.491387 4.787747 -19.317799 0
M  V30 28 C 11.518690 8.969633 -4.274917 0
M  V30 29 O 11.775767 10.372468 -6.218017 0
M  V30 30 C 8.336069 4.998865 -11.731389 0
M  V30 31 C 7.251832 4.744447 -15.836325 0
M  V30 32 C 11.519821 9.252311 -5.784619 0
M  V30 33 N 7.596348 5.713467 -14.778620 0 CHG=1
M  V30 34 H 6.377417 7.779721 -13.742356 0
M  V30 35 H 5.794630 7.091743 -12.242475 0
M  V30 36 H 9.030691 8.755043 -10.095273 0
M  V30 37 H 10.676655 8.790032 -10.845704 0
M  V30 38 H 12.758855 7.148003 -2.280855 0
M  V30 39 H 7.674292 8.234756 -11.582959 0
M  V30 40 H 8.591537 7.838710 -13.003211 0
M  V30 41 H 5.661936 1.836888 -20.753187 0
M  V30 42 H 5.675960 5.440827 -13.957016 0
M  V30 43 H 11.331115 5.590337 -2.874897 0
M  V30 44 H 9.778539 6.390118 -3.368726 0
M  V30 45 H 7.630064 6.104577 -17.442084 0
M  V30 46 H 10.124866 5.537431 -8.946670 0
M  V30 47 H 8.679065 6.619127 -8.840230 0
M  V30 48 H 10.723701 6.393058 -11.205615 0
M  V30 49 H 7.271291 3.668351 -13.029607 0
M  V30 50 H 12.144326 7.668153 -7.049829 0
M  V30 51 H 9.820543 5.203339 -18.185795 0
M  V30 52 H 9.868074 5.633797 -16.481299 0
M  V30 53 H 9.731394 3.943915 -16.955199 0
M  V30 54 H 5.319321 4.306287 -21.071963 0
M  V30 55 H 9.471633 7.410580 -5.585376 0
M  V30 56 H 10.090496 6.166038 -6.642322 0
M  V30 57 H 9.420026 8.828796 -7.774648 0
M  V30 58 H 10.975516 9.440005 -8.356024 0
M  V30 59 H 6.371185 5.860712 -19.395908 0
M  V30 60 H 10.575415 9.334947 -3.884888 0
M  V30 61 H 12.300722 9.578940 -3.819688 0
M  V30 62 H 7.499964 3.730117 -15.515375 0
M  V30 63 H 6.177982 4.789784 -15.972436 0
M  V30 64 H 7.518394 6.634206 -15.185375 0
M  V30 65 H 8.550463 5.571539 -14.478479 0
M  V30 66 H 11.519774 7.377600 -9.327438 0
M  V30 END ATOM
M  V30 BEGIN BOND
M  V30 1 1 4 1
M  V30 2 1 5 3 CFG=1
M  V30 3 1 7 6
M  V30 4 1 8 1
M  V30 5 1 10 5
M  V30 6 1 12 5
M  V30 7 1 12 10
M  V30 8 1 13 9
M  V30 9 1 15 2
M  V30 10 1 15 14
M  V30 11 1 16 8
M  V30 12 1 16 11
M  V30 13 1 18 13
M  V30 14 2 19 7
M  V30 15 2 21 6
M  V30 16 1 21 9
M  V30 17 1 22 2
M  V30 18 1 22 14
M  V30 19 1 23 10
M  V30 20 1 23 17
M  V30 21 1 24 4
M  V30 22 1 24 15
M  V30 23 1 10 25 CFG=3
M  V30 24 1 26 17
M  V30 25 1 26 22
M  V30 26 2 27 9
M  V30 27 1 27 19
M  V30 28 1 28 5
M  V30 29 1 30 16
M  V30 30 2 30 20
M  V30 31 1 30 24
M  V30 32 1 31 13
M  V30 33 1 32 17
M  V30 34 1 32 28
M  V30 35 2 32 29
M  V30 36 1 33 8
M  V30 37 1 33 31
M  V30 38 1 34 1
M  V30 39 1 35 1
M  V30 40 1 36 2
M  V30 41 1 37 2
M  V30 42 1 38 3
M  V30 43 1 39 4
M  V30 44 1 40 4
M  V30 45 1 41 7
M  V30 46 1 8 42 CFG=3
M  V30 47 1 43 12
M  V30 48 1 44 12
M  V30 49 1 13 45 CFG=3
M  V30 50 1 46 14
M  V30 51 1 47 14
M  V30 52 1 15 48 CFG=3
M  V30 53 1 16 49 CFG=3
M  V30 54 1 17 50 CFG=3
M  V30 55 1 51 18
M  V30 56 1 52 18
M  V30 57 1 53 18
M  V30 58 1 54 19
M  V30 59 1 55 23
M  V30 60 1 56 23
M  V30 61 1 57 26
M  V30 62 1 58 26
M  V30 63 1 59 27
M  V30 64 1 60 28
M  V30 65 1 61 28
M  V30 66 1 62 31
M  V30 67 1 63 31
M  V30 68 1 64 33
M  V30 69 1 65 33
M  V30 70 1 22 66 CFG=3
M  V30 END BOND
M  V30 END CTAB
M  END
>  <i_epik_Tot_Q>  (1) 
2

>  <i_epik_Tot_abs_Q>  (1) 
2

>  <i_i_glide_confnum>  (1) 
251

>  <i_i_glide_lignum>  (1) 
179

>  <i_i_glide_posenum>  (1) 
391

>  <i_i_glide_rotatable_bonds>  (1) 
8

>  <i_lp_mmshare_version>  (1) 
72125

>  <i_m_source_file_index>  (1) 
95

>  <i_f3d_flags>  (1) 
0

>  <num_sample>  (1) 
100

>  <b_lp_Chiralities_Consistent>  (1) 
1

>  <r_epik_Charging_Adjusted_Penalty>  (1) 
0.95188217531897845

>  <r_epik_Ionization_Penalty>  (1) 
0.49022780398244736

>  <r_epik_Ionization_Penalty_Charging>  (1) 
0.49020808109847258

>  <r_epik_Ionization_Penalty_Neutral>  (1) 
1.9722883974789891e-05

>  <r_epik_State_Penalty>  (1) 
0.46167409422050587

>  <r_glide_ring_energy>  (1) 
1.3165782718524275

>  <r_i_docking_score>  (1) 
-4.3100510201900155

>  <r_i_glide_ecoul>  (1) 
-1.4761932755531948

>  <r_i_glide_eff_state_penalty>  (1) 
0.46167409422050587

>  <r_i_glide_einternal>  (1) 
13.313082800044992

>  <r_i_glide_emodel>  (1) 
-34.99337255294455

>  <r_i_glide_emodel_strain>  (1) 
1.7802739201114122

>  <r_i_glide_energy>  (1) 
-27.746699327814468

>  <r_i_glide_erotb>  (1) 
0.52401424714319955

>  <r_i_glide_esite>  (1) 
-0.075521611036567848

>  <r_i_glide_evdw>  (1) 
-26.270506052261275

>  <r_i_glide_gscore>  (1) 
-4.7717251144105211

>  <r_i_glide_gscore_strain>  (1) 
0

>  <r_i_glide_hbond>  (1) 
0

>  <r_i_glide_ligand_efficiency>  (1) 
-0.13060760667242471

>  <r_i_glide_ligand_efficiency_ln>  (1) 
-0.95853303064041684

>  <r_i_glide_ligand_efficiency_sa>  (1) 
-0.41892838216039424

>  <r_i_glide_lipo>  (1) 
-2.1298184393704256

>  <r_i_glide_metal>  (1) 
-0

>  <r_i_glide_rewards>  (1) 
-1.5554450172006844

>  <r_lp_Energy>  (1) 
63.815528

>  <r_lp_tautomer_probability>  (1) 
0.99999998000000001

>  <s_epik_cmdline>  (1) 
J2VwaWtfcHl0aG9uJywgJy1waHQnLCAnMS4wJywgJy1waCcsICc3LjQnLCAnLXRuJywgJzgnLCAnLW1hJywgJzUwMCcsICctaW1hZScsICc8aW5maWxlLm1hZT4nLCAnLW9tYWUnLCAnPG91dGZpbGUubWFlPic=

>  <s_epik_input>  (1) 
W2NIXTFbY0hdW2NIXW5uYzFbQ0BIXShbQ0gzXSlbQ0gyXVtOSF1bQ0BASF0yW0NIMl1bQ0gyXU4oQyg9TylbQ0BIXTJDbClbQ0hdM1tDSDJdTihbQ0gyXTMpW0NIMl1bQ0BASF0oQyg9TylbQ0gyXTQpW0NIMl1bQ0BdKEYpKFtDSDJdNSlbQ0BAXTQ1W09IXQ==

>  <s_glide_docking_method>  (1) 
confgen

>  <s_i_glide_gridfile>  (1) 
gpcr_drd2_6luq_protein_autoprepared_prepared

>  <s_lp_Force_Field>  (1) 
S-OPLS

>  <s_lp_Variant>  (1) 
DiffSBDD_94-2

>  <s_m_source_file>  (1) 
generated_generic_title2_ligand_DiffSBDD_2026-06-23_prepared.sdf

>  <GenAI_Model>  (1) 
DiffSBDD

>  <Protein>  (1) 
generic_title2

$$$$
DiffSBDD_12
     RDKit          3D

  0  0  0  0  0  0  0  0  0  0999 V3000
M  V30 BEGIN CTAB
M  V30 COUNTS 20 21 0 0 1
M  V30 BEGIN ATOM
M  V30 1 C 9.637040 5.575894 -12.373497 0
M  V30 2 C 8.411553 6.429162 -12.220662 0
M  V30 3 C 9.786422 6.360417 -8.135889 0
M  V30 4 N 11.153025 8.350686 -8.402683 0 CHG=1
M  V30 5 C 10.329567 7.285003 -8.948130 0
M  V30 6 C 8.975410 5.296714 -8.665004 0
M  V30 7 O 11.634551 9.165997 -9.183908 0 CHG=-1
M  V30 8 C 9.280979 6.140521 -11.010281 0
M  V30 9 C 10.145233 7.301146 -10.467052 0
M  V30 10 O 11.331487 8.385478 -7.187739 0
M  V30 11 C 8.739379 5.190218 -9.981695 0
M  V30 12 H 10.485151 6.007225 -12.901484 0
M  V30 13 H 9.491169 4.509249 -12.535066 0
M  V30 14 H 7.442713 5.936167 -12.274887 0
M  V30 15 H 8.442648 7.430810 -12.645230 0
M  V30 16 H 9.959124 6.411704 -7.071079 0
M  V30 17 H 8.545933 4.571673 -7.989354 0
M  V30 18 H 9.678847 8.247335 -10.744727 0
M  V30 19 H 11.125811 7.271421 -10.942959 0
M  V30 20 H 8.123050 4.381443 -10.344832 0
M  V30 END ATOM
M  V30 BEGIN BOND
M  V30 1 1 2 1
M  V30 2 2 5 3
M  V30 3 1 5 4
M  V30 4 1 6 3
M  V30 5 1 7 4
M  V30 6 1 8 1
M  V30 7 1 8 2
M  V30 8 1 9 5
M  V30 9 1 9 8
M  V30 10 2 10 4
M  V30 11 2 11 6
M  V30 12 1 11 8
M  V30 13 1 12 1
M  V30 14 1 13 1
M  V30 15 1 14 2
M  V30 16 1 15 2
M  V30 17 1 16 3
M  V30 18 1 17 6
M  V30 19 1 18 9
M  V30 20 1 19 9
M  V30 21 1 20 11
M  V30 END BOND
M  V30 END CTAB
M  END
>  <i_epik_Tot_Q>  (1) 
0

>  <i_epik_Tot_abs_Q>  (1) 
2

>  <i_i_glide_confnum>  (1) 
1

>  <i_i_glide_lignum>  (1) 
24

>  <i_i_glide_posenum>  (1) 
220

>  <i_i_glide_rotatable_bonds>  (1) 
1

>  <i_lp_mmshare_version>  (1) 
72125

>  <i_m_source_file_index>  (1) 
13

>  <i_f3d_flags>  (1) 
0

>  <num_sample>  (1) 
100

>  <b_lp_Chiralities_Consistent>  (1) 
1

>  <r_epik_Charging_Adjusted_Penalty>  (1) 
0

>  <r_epik_Ionization_Penalty>  (1) 
1.9453475992489072e-06

>  <r_epik_Ionization_Penalty_Charging>  (1) 
0

>  <r_epik_Ionization_Penalty_Neutral>  (1) 
1.9453475992489072e-06

>  <r_epik_State_Penalty>  (1) 
-0

>  <r_glide_ring_energy>  (1) 
0

>  <r_i_docking_score>  (1) 
-4.3047734359555605

>  <r_i_glide_ecoul>  (1) 
-0.72798304400955094

>  <r_i_glide_eff_state_penalty>  (1) 
-0

>  <r_i_glide_einternal>  (1) 
0.042529998135816705

>  <r_i_glide_emodel>  (1) 
-27.065727447951314

>  <r_i_glide_emodel_strain>  (1) 
0

>  <r_i_glide_energy>  (1) 
-21.860327534734637

>  <r_i_glide_erotb>  (1) 
0

>  <r_i_glide_esite>  (1) 
0

>  <r_i_glide_evdw>  (1) 
-21.132344490725085

>  <r_i_glide_gscore>  (1) 
-4.3047734359555605

>  <r_i_glide_gscore_strain>  (1) 
0

>  <r_i_glide_hbond>  (1) 
0

>  <r_i_glide_ligand_efficiency>  (1) 
-0.3913430396323237

>  <r_i_glide_ligand_efficiency_ln>  (1) 
-1.2668940889429829

>  <r_i_glide_ligand_efficiency_sa>  (1) 
-0.8703391287251665

>  <r_i_glide_lipo>  (1) 
-0.15432752192838831

>  <r_i_glide_metal>  (1) 
-0

>  <r_i_glide_rewards>  (1) 
-2.9846312328894857

>  <r_lp_Energy>  (1) 
16.789680999999998

>  <r_lp_tautomer_probability>  (1) 
1

>  <s_epik_cmdline>  (1) 
J2VwaWtfcHl0aG9uJywgJy1waHQnLCAnMS4wJywgJy1waCcsICc3LjQnLCAnLXRuJywgJzgnLCAnLW1hJywgJzUwMCcsICctaW1hZScsICc8aW5maWxlLm1hZT4nLCAnLW9tYWUnLCAnPG91dGZpbGUubWFlPic=

>  <s_epik_input>  (1) 
W0NIMl0xW0NIMl1DMTJbQ0gyXUMoW04rXShbTy1dKT1PKT1bQ0hdW0NIXT1bQ0hdMg==

>  <s_glide_docking_method>  (1) 
confgen

>  <s_i_glide_gridfile>  (1) 
gpcr_drd2_6luq_protein_autoprepared_prepared

>  <s_lp_Force_Field>  (1) 
S-OPLS

>  <s_lp_Variant>  (1) 
DiffSBDD_12-1

>  <s_m_source_file>  (1) 
generated_generic_title2_ligand_DiffSBDD_2026-06-23_prepared.sdf

>  <GenAI_Model>  (1) 
DiffSBDD

>  <Protein>  (1) 
generic_title2

$$$$
DiffSBDD_94
     RDKit          3D

  0  0  0  0  0  0  0  0  0  0999 V3000
M  V30 BEGIN CTAB
M  V30 COUNTS 65 69 0 0 1
M  V30 BEGIN ATOM
M  V30 1 C 5.361588 5.991812 -16.294647 0
M  V30 2 C 7.595708 6.006035 -11.951362 0
M  V30 3 O 10.177047 6.971928 -5.403208 0
M  V30 4 C 5.902264 6.972198 -15.285252 0
M  V30 5 C 10.283177 6.652572 -6.767392 0 CFG=1
M  V30 6 N 4.669387 6.647994 -22.285644 0
M  V30 7 C 4.121733 7.888874 -22.220873 0
M  V30 8 C 6.489734 5.470298 -17.199506 0 CFG=2
M  V30 9 C 6.468718 7.409468 -21.002083 0
M  V30 10 C 11.369889 7.367530 -7.553817 0 CFG=1
M  V30 11 Cl 7.390331 3.159071 -16.129246 0
M  V30 12 C 11.601389 5.996028 -6.925714 0
M  V30 13 C 7.802955 7.066462 -20.356461 0 CFG=2
M  V30 14 C 7.821588 7.939740 -12.769262 0
M  V30 15 C 6.885764 6.801163 -13.052070 0 CFG=1
M  V30 16 C 7.662183 4.910686 -16.360747 0 CFG=2
M  V30 17 C 9.776463 7.284340 -9.581911 0 CFG=1
M  V30 18 C 8.862116 6.660444 -21.387633 0
M  V30 19 C 4.718017 8.950490 -21.526983 0
M  V30 20 O 8.879436 5.145192 -14.318776 0
M  V30 21 N 5.846168 6.405350 -21.674920 0
M  V30 22 N 8.183660 7.271846 -11.547903 0 CFG=2 CHG=1
M  V30 23 C 11.213075 7.572758 -9.064162 0
M  V30 24 N 6.937450 6.350558 -14.456477 0
M  V30 25 F 11.954482 8.459208 -6.934108 0
M  V30 26 C 9.612142 7.326492 -11.126015 0
M  V30 27 C 5.934593 8.704570 -20.896455 0
M  V30 28 C 9.077470 6.012470 -7.431675 0
M  V30 29 O 9.037353 4.981548 -9.600604 0
M  V30 30 C 7.890386 5.494179 -14.956352 0
M  V30 31 C 7.685199 6.040509 -19.216043 0
M  V30 32 C 9.266302 5.990489 -8.937838 0
M  V30 33 N 6.863574 6.536347 -18.116670 0
M  V30 34 H 4.521945 6.390221 -16.865645 0
M  V30 35 H 4.979625 5.196642 -15.669795 0
M  V30 36 H 8.338899 5.246755 -12.150536 0
M  V30 37 H 6.910182 5.633754 -11.192301 0
M  V30 38 H 9.917453 6.191388 -4.931764 0
M  V30 39 H 5.081521 7.367468 -14.682315 0
M  V30 40 H 6.336932 7.836028 -15.794729 0
M  V30 41 H 3.181630 8.027501 -22.732886 0
M  V30 42 H 6.096569 4.670613 -17.825467 0
M  V30 43 H 12.218245 5.901264 -6.035552 0
M  V30 44 H 11.465344 5.084565 -7.497748 0
M  V30 45 H 8.176890 7.988385 -19.938165 0
M  V30 46 H 7.376313 8.884869 -12.471723 0
M  V30 47 H 8.575548 7.989288 -13.526597 0
M  V30 48 H 5.876266 7.050776 -12.709913 0
M  V30 49 H 8.609860 4.957034 -16.893287 0
M  V30 50 H 9.154176 8.080614 -9.167367 0
M  V30 51 H 8.988848 7.439391 -22.139616 0
M  V30 52 H 9.829849 6.507861 -20.909312 0
M  V30 53 H 8.592372 5.736939 -21.897706 0
M  V30 54 H 4.254036 9.924298 -21.487653 0
M  V30 55 H 11.942120 6.950414 -9.576849 0
M  V30 56 H 11.492182 8.598307 -9.306410 0
M  V30 57 H 10.015050 8.283985 -11.457415 0
M  V30 58 H 10.207516 6.557052 -11.619370 0
M  V30 59 H 6.447743 9.482947 -20.352794 0
M  V30 60 H 8.972692 4.980790 -7.135753 0
M  V30 61 H 8.179189 6.550951 -7.158450 0
M  V30 62 H 8.680699 5.807962 -18.841448 0
M  V30 63 H 7.271689 5.112428 -19.609291 0
M  V30 64 H 7.306958 7.301454 -17.632367 0
M  V30 65 H 7.600995 7.630012 -10.785029 0
M  V30 END ATOM
M  V30 BEGIN BOND
M  V30 1 1 4 1
M  V30 2 1 5 3 CFG=1
M  V30 3 1 7 6
M  V30 4 1 8 1
M  V30 5 1 10 5
M  V30 6 1 12 5
M  V30 7 1 12 10
M  V30 8 1 13 9
M  V30 9 1 15 2
M  V30 10 1 15 14
M  V30 11 1 16 8
M  V30 12 1 16 11
M  V30 13 1 18 13
M  V30 14 2 19 7
M  V30 15 2 21 6
M  V30 16 1 21 9
M  V30 17 1 22 2
M  V30 18 1 22 14
M  V30 19 1 23 10
M  V30 20 1 23 17
M  V30 21 1 24 4
M  V30 22 1 24 15
M  V30 23 1 10 25 CFG=1
M  V30 24 1 26 17
M  V30 25 1 26 22
M  V30 26 2 27 9
M  V30 27 1 27 19
M  V30 28 1 28 5
M  V30 29 1 30 16
M  V30 30 2 30 20
M  V30 31 1 30 24
M  V30 32 1 31 13
M  V30 33 1 32 17
M  V30 34 1 32 28
M  V30 35 2 32 29
M  V30 36 1 33 8
M  V30 37 1 33 31
M  V30 38 1 34 1
M  V30 39 1 35 1
M  V30 40 1 36 2
M  V30 41 1 37 2
M  V30 42 1 38 3
M  V30 43 1 39 4
M  V30 44 1 40 4
M  V30 45 1 41 7
M  V30 46 1 8 42 CFG=3
M  V30 47 1 43 12
M  V30 48 1 44 12
M  V30 49 1 13 45 CFG=1
M  V30 50 1 46 14
M  V30 51 1 47 14
M  V30 52 1 15 48 CFG=1
M  V30 53 1 16 49 CFG=3
M  V30 54 1 17 50 CFG=1
M  V30 55 1 51 18
M  V30 56 1 52 18
M  V30 57 1 53 18
M  V30 58 1 54 19
M  V30 59 1 55 23
M  V30 60 1 56 23
M  V30 61 1 57 26
M  V30 62 1 58 26
M  V30 63 1 59 27
M  V30 64 1 60 28
M  V30 65 1 61 28
M  V30 66 1 62 31
M  V30 67 1 63 31
M  V30 68 1 64 33
M  V30 69 1 22 65 CFG=1
M  V30 END BOND
M  V30 END CTAB
M  END
>  <i_epik_Tot_Q>  (1) 
1

>  <i_epik_Tot_abs_Q>  (1) 
1

>  <i_i_glide_confnum>  (1) 
88

>  <i_i_glide_lignum>  (1) 
182

>  <i_i_glide_posenum>  (1) 
138

>  <i_i_glide_rotatable_bonds>  (1) 
8

>  <i_lp_mmshare_version>  (1) 
72125

>  <i_m_source_file_index>  (1) 
95

>  <i_f3d_flags>  (1) 
0

>  <num_sample>  (1) 
100

>  <b_lp_Chiralities_Consistent>  (1) 
1

>  <r_epik_Charging_Adjusted_Penalty>  (1) 
1.4532026091556733

>  <r_epik_Ionization_Penalty>  (1) 
1.1658176113502041

>  <r_epik_Ionization_Penalty_Charging>  (1) 
0.22723193656236854

>  <r_epik_Ionization_Penalty_Neutral>  (1) 
0.93858567478783561

>  <r_epik_State_Penalty>  (1) 
1.2259706725933048

>  <r_glide_ring_energy>  (1) 
1.316578271852465

>  <r_i_docking_score>  (1) 
-4.2986585961845742

>  <r_i_glide_ecoul>  (1) 
-7.5660000087046804

>  <r_i_glide_eff_state_penalty>  (1) 
1.2259706725933048

>  <r_i_glide_einternal>  (1) 
3.4114275373974223

>  <r_i_glide_emodel>  (1) 
-31.115633826960661

>  <r_i_glide_emodel_strain>  (1) 
4.948662362190845

>  <r_i_glide_energy>  (1) 
-29.616367328018264

>  <r_i_glide_erotb>  (1) 
0.52602338862990483

>  <r_i_glide_esite>  (1) 
-0.18425859128562819

>  <r_i_glide_evdw>  (1) 
-22.050367319313583

>  <r_i_glide_gscore>  (1) 
-5.5246292687778791

>  <r_i_glide_gscore_strain>  (1) 
0.23716559054771125

>  <r_i_glide_hbond>  (1) 
-0.19909892966455928

>  <r_i_glide_ligand_efficiency>  (1) 
-0.13026238170256285

>  <r_i_glide_ligand_efficiency_ln>  (1) 
-0.9559994145284213

>  <r_i_glide_ligand_efficiency_sa>  (1) 
-0.41782106121799056

>  <r_i_glide_lipo>  (1) 
-1.9907090587608498

>  <r_i_glide_metal>  (1) 
-0

>  <r_i_glide_rewards>  (1) 
-1.6763333009730774

>  <r_lp_Energy>  (1) 
59.784298

>  <s_epik_cmdline>  (1) 
J2VwaWtfcHl0aG9uJywgJy1waHQnLCAnMS4wJywgJy1waCcsICc3LjQnLCAnLXRuJywgJzgnLCAnLW1hJywgJzUwMCcsICctaW1hZScsICc8aW5maWxlLm1hZT4nLCAnLW9tYWUnLCAnPG91dGZpbGUubWFlPic=

>  <s_epik_input>  (1) 
W2NIXTFbY0hdW2NIXW5uYzFbQ0BIXShbQ0gzXSlbQ0gyXVtOSF1bQ0BASF0yW0NIMl1bQ0gyXU4oQyg9TylbQ0BIXTJDbClbQ0hdM1tDSDJdTihbQ0gyXTMpW0NIMl1bQ0BASF0oQyg9TylbQ0gyXTQpW0NIMl1bQ0BdKEYpKFtDSDJdNSlbQ0BAXTQ1W09IXQ==

>  <s_glide_docking_method>  (1) 
confgen

>  <s_i_glide_gridfile>  (1) 
gpcr_drd2_6luq_protein_autoprepared_prepared

>  <s_lp_Force_Field>  (1) 
S-OPLS

>  <s_lp_Variant>  (1) 
DiffSBDD_94-5

>  <s_m_source_file>  (1) 
generated_generic_title2_ligand_DiffSBDD_2026-06-23_prepared.sdf

>  <GenAI_Model>  (1) 
DiffSBDD

>  <Protein>  (1) 
generic_title2

$$$$
DiffSBDD_87
     RDKit          3D

  0  0  0  0  0  0  0  0  0  0999 V3000
M  V30 BEGIN CTAB
M  V30 COUNTS 76 79 0 0 1
M  V30 BEGIN ATOM
M  V30 1 S 4.786546 7.824989 -21.949174 0
M  V30 2 C 11.377268 9.225243 -5.178691 0
M  V30 3 C 10.362218 7.453385 -10.509881 0
M  V30 4 C 9.876536 6.414382 -8.304462 0
M  V30 5 O 3.598927 11.241278 -22.225711 0
M  V30 6 C 5.523405 6.828431 -16.066111 0
M  V30 7 C 6.612652 6.521580 -13.310706 0
M  V30 8 C 2.424035 11.220526 -21.407127 0
M  V30 9 C 6.730482 5.952971 -21.460411 0
M  V30 10 C 6.695107 6.054261 -15.815222 0
M  V30 11 C 9.222547 8.579850 -7.249250 0
M  V30 12 C 3.086218 9.950877 -21.861487 0 CFG=2
M  V30 13 O 5.043724 6.336581 -19.694803 0
M  V30 14 C 7.129736 6.378802 -12.011360 0
M  V30 15 C 3.985234 9.119267 -20.969588 0
M  V30 16 C 5.813079 6.960474 -20.724100 0 CFG=2
M  V30 17 N 9.375398 6.699524 -9.689475 0 CFG=2 CHG=1
M  V30 18 C 6.753967 5.491662 -18.210259 0
M  V30 19 C 7.301586 5.391120 -16.917866 0
M  V30 20 C 11.375368 7.690978 -5.162484 0
M  V30 21 C 5.594682 6.255245 -18.435649 0
M  V30 22 C 4.983284 6.921383 -17.364445 0
M  V30 23 C 8.471123 5.204191 -14.182269 0
M  V30 24 C 11.528027 8.265464 -8.381458 0
M  V30 25 N 10.936207 7.023153 -6.261160 0
M  V30 26 C 10.415929 7.632925 -7.510274 0 CFG=2
M  V30 27 C 10.969977 8.648180 -9.751808 0
M  V30 28 O 11.775052 7.098075 -4.163445 0
M  V30 29 C 7.738109 4.802692 -9.522815 0
M  V30 30 C 4.918284 4.517484 -22.646598 0
M  V30 31 C 8.848413 5.462694 -10.360093 0 CFG=1
M  V30 32 C 7.266827 5.930413 -14.425100 0
M  V30 33 C 8.313168 5.653147 -11.787718 0
M  V30 34 C 6.135813 4.548507 -21.713203 0
M  V30 35 C 8.985232 5.072623 -12.876080 0
M  V30 36 H 11.982489 9.660569 -5.965432 0
M  V30 37 H 10.382202 9.655198 -5.173900 0
M  V30 38 H 11.835723 9.569629 -4.251138 0
M  V30 39 H 11.161015 6.790348 -10.835988 0
M  V30 40 H 9.880083 7.820695 -11.416924 0
M  V30 41 H 9.076129 6.000292 -7.694272 0
M  V30 42 H 10.642465 5.641168 -8.374517 0
M  V30 43 H 5.032610 7.348972 -15.264392 0
M  V30 44 H 5.701481 7.074053 -13.445273 0
M  V30 45 H 1.518703 11.557714 -21.909242 0
M  V30 46 H 2.571420 11.549784 -20.385054 0
M  V30 47 H 7.050906 6.385428 -22.409556 0
M  V30 48 H 7.658217 5.840557 -20.903166 0
M  V30 49 H 8.575471 8.681655 -8.113655 0
M  V30 50 H 8.597219 8.249021 -6.419328 0
M  V30 51 H 9.555508 9.590259 -7.068507 0
M  V30 52 H 2.588641 9.415298 -22.669170 0
M  V30 53 H 6.603809 6.818039 -11.185011 0
M  V30 54 H 3.384464 8.661797 -20.183562 0
M  V30 55 H 4.734202 9.749466 -20.489396 0
M  V30 56 H 6.440681 7.734812 -20.279829 0
M  V30 57 H 7.223258 4.969189 -19.025358 0
M  V30 58 H 8.184206 4.794611 -16.775175 0
M  V30 59 H 4.091312 7.506074 -17.534422 0
M  V30 60 H 9.000479 4.741513 -14.994059 0
M  V30 61 H 12.363134 7.577975 -8.503983 0
M  V30 62 H 11.949039 9.164453 -7.945525 0
M  V30 63 H 10.949667 6.014328 -6.223851 0
M  V30 64 H 11.755662 9.109289 -10.350730 0
M  V30 65 H 10.213225 9.412237 -9.585023 0
M  V30 66 H 7.253456 3.991028 -10.064110 0
M  V30 67 H 8.093287 4.390183 -8.583191 0
M  V30 68 H 6.975078 5.535318 -9.275113 0
M  V30 69 H 4.635324 3.490752 -22.879258 0
M  V30 70 H 4.056911 4.996081 -22.181688 0
M  V30 71 H 5.125019 5.026925 -23.588167 0
M  V30 72 H 9.673865 4.750814 -10.421947 0
M  V30 73 H 6.913722 3.920349 -22.149152 0
M  V30 74 H 5.870488 4.074766 -20.767855 0
M  V30 75 H 9.893604 4.510282 -12.712954 0
M  V30 76 H 8.538144 7.283888 -9.584716 0
M  V30 END ATOM
M  V30 BEGIN BOND
M  V30 1 1 8 5
M  V30 2 2 10 6
M  V30 3 1 12 5
M  V30 4 1 12 8
M  V30 5 2 14 7
M  V30 6 1 15 1
M  V30 7 1 15 12
M  V30 8 1 16 1
M  V30 9 1 16 9
M  V30 10 1 16 13
M  V30 11 1 17 3
M  V30 12 1 17 4
M  V30 13 1 19 10
M  V30 14 2 19 18
M  V30 15 1 20 2
M  V30 16 1 21 13
M  V30 17 1 21 18
M  V30 18 1 22 6
M  V30 19 2 22 21
M  V30 20 1 25 20
M  V30 21 1 26 4
M  V30 22 1 26 11
M  V30 23 1 26 24
M  V30 24 1 26 25 CFG=1
M  V30 25 1 27 3
M  V30 26 1 27 24
M  V30 27 2 28 20
M  V30 28 1 31 17
M  V30 29 1 31 29
M  V30 30 1 32 7
M  V30 31 1 32 10
M  V30 32 2 32 23
M  V30 33 1 33 14
M  V30 34 1 33 31
M  V30 35 1 34 9
M  V30 36 1 34 30
M  V30 37 1 35 23
M  V30 38 2 35 33
M  V30 39 1 36 2
M  V30 40 1 37 2
M  V30 41 1 38 2
M  V30 42 1 39 3
M  V30 43 1 40 3
M  V30 44 1 41 4
M  V30 45 1 42 4
M  V30 46 1 43 6
M  V30 47 1 44 7
M  V30 48 1 45 8
M  V30 49 1 46 8
M  V30 50 1 47 9
M  V30 51 1 48 9
M  V30 52 1 49 11
M  V30 53 1 50 11
M  V30 54 1 51 11
M  V30 55 1 12 52 CFG=3
M  V30 56 1 53 14
M  V30 57 1 54 15
M  V30 58 1 55 15
M  V30 59 1 16 56 CFG=1
M  V30 60 1 57 18
M  V30 61 1 58 19
M  V30 62 1 59 22
M  V30 63 1 60 23
M  V30 64 1 61 24
M  V30 65 1 62 24
M  V30 66 1 63 25
M  V30 67 1 64 27
M  V30 68 1 65 27
M  V30 69 1 66 29
M  V30 70 1 67 29
M  V30 71 1 68 29
M  V30 72 1 69 30
M  V30 73 1 70 30
M  V30 74 1 71 30
M  V30 75 1 31 72 CFG=3
M  V30 76 1 73 34
M  V30 77 1 74 34
M  V30 78 1 75 35
M  V30 79 1 17 76 CFG=1
M  V30 END BOND
M  V30 END CTAB
M  END
>  <i_epik_Tot_Q>  (1) 
1

>  <i_epik_Tot_abs_Q>  (1) 
1

>  <i_i_glide_confnum>  (1) 
634

>  <i_i_glide_lignum>  (1) 
157

>  <i_i_glide_posenum>  (1) 
390

>  <i_i_glide_rotatable_bonds>  (1) 
12

>  <i_lp_mmshare_version>  (1) 
72125

>  <i_m_source_file_index>  (1) 
88

>  <i_f3d_flags>  (1) 
0

>  <num_sample>  (1) 
100

>  <b_lp_Chiralities_Consistent>  (1) 
1

>  <r_epik_Charging_Adjusted_Penalty>  (1) 
0.24591797925462006

>  <r_epik_Ionization_Penalty>  (1) 
0.12295908446121387

>  <r_epik_Ionization_Penalty_Charging>  (1) 
0.12295898962731001

>  <r_epik_Ionization_Penalty_Neutral>  (1) 
9.4833903855356945e-08

>  <r_epik_State_Penalty>  (1) 
0.12295898962731003

>  <r_glide_ring_energy>  (1) 
0

>  <r_i_docking_score>  (1) 
-4.2928368053329224

>  <r_i_glide_ecoul>  (1) 
-6.70941061795435

>  <r_i_glide_eff_state_penalty>  (1) 
0.12295898962731003

>  <r_i_glide_einternal>  (1) 
17.695515511157666

>  <r_i_glide_emodel>  (1) 
-54.722471256367754

>  <r_i_glide_emodel_strain>  (1) 
0.69596192621843755

>  <r_i_glide_energy>  (1) 
-53.333509270586546

>  <r_i_glide_erotb>  (1) 
0.74116783978336576

>  <r_i_glide_esite>  (1) 
-0.10000000000000001

>  <r_i_glide_evdw>  (1) 
-46.624098652632199

>  <r_i_glide_gscore>  (1) 
-4.4157957949602329

>  <r_i_glide_gscore_strain>  (1) 
0

>  <r_i_glide_hbond>  (1) 
-0.20000000000000001

>  <r_i_glide_ligand_efficiency>  (1) 
-0.12265248015236921

>  <r_i_glide_ligand_efficiency_ln>  (1) 
-0.94237295315022318

>  <r_i_glide_ligand_efficiency_sa>  (1) 
-0.40120439568748967

>  <r_i_glide_lipo>  (1) 
-3.1527577536266871

>  <r_i_glide_metal>  (1) 
-0

>  <r_i_glide_rewards>  (1) 
1.6334106442078509

>  <r_lp_Energy>  (1) 
41.786876999999997

>  <r_lp_tautomer_probability>  (1) 
1

>  <s_epik_Chemistry_Notes>  (1) 
This compound contains an acetal/aminal-like group ( X-CH(R)-Y where X, Y are N, S, or O) that may be acid/base labile, releasing an aldehyde.

>  <s_epik_cmdline>  (1) 
J2VwaWtfcHl0aG9uJywgJy1waHQnLCAnMS4wJywgJy1waCcsICc3LjQnLCAnLXRuJywgJzgnLCAnLW1hJywgJzUwMCcsICctaW1hZScsICc8aW5maWxlLm1hZT4nLCAnLW9tYWUnLCAnPG91dGZpbGUubWFlPic=

>  <s_epik_input>  (1) 
W0NIMl0xT1tDQEhdMVtDSDJdU1tDQEhdKFtDSDJdW0NIMl1bQ0gzXSlPYyhbY0hdW2NIXTIpW2NIXVtjSF1jMi1jM1tjSF1bY0hdYyhbY0hdW2NIXTMpW0NASF0oW0NIM10pTihbQ0gyXVtDSDJdW0NIMl00KVtDSDJdW0NAQF00KFtDSDNdKVtOSF1DKD1PKVtDSDNd

>  <s_glide_docking_method>  (1) 
confgen

>  <s_i_glide_gridfile>  (1) 
gpcr_drd2_6luq_protein_autoprepared_prepared

>  <s_lp_Force_Field>  (1) 
S-OPLS

>  <s_lp_Variant>  (1) 
DiffSBDD_87-1

>  <s_m_source_file>  (1) 
generated_generic_title2_ligand_DiffSBDD_2026-06-23_prepared.sdf

>  <GenAI_Model>  (1) 
DiffSBDD

>  <Protein>  (1) 
generic_title2

$$$$
DiffSBDD_12
     RDKit          3D

  0  0  0  0  0  0  0  0  0  0999 V3000
M  V30 BEGIN CTAB
M  V30 COUNTS 20 21 0 0 1
M  V30 BEGIN ATOM
M  V30 1 C 10.768039 7.190227 -11.180457 0
M  V30 2 C 9.375411 7.730510 -11.185023 0
M  V30 3 C 9.892352 6.390227 -7.085633 0
M  V30 4 N 10.971884 8.432578 -6.339031 0 CHG=1
M  V30 5 C 10.401796 7.595970 -7.385354 0
M  V30 6 C 9.346094 5.542112 -8.110707 0
M  V30 7 O 11.428299 9.526029 -6.655449 0 CHG=-1
M  V30 8 C 9.961701 7.188143 -9.895639 0
M  V30 9 C 10.434141 8.178306 -8.800671 0
M  V30 10 O 10.975411 8.003685 -5.188800 0
M  V30 11 C 9.375410 5.901776 -9.400664 0
M  V30 12 H 11.612586 7.874347 -11.185077 0
M  V30 13 H 10.911136 6.268406 -11.737478 0
M  V30 14 H 8.606917 7.136257 -11.676034 0
M  V30 15 H 9.237381 8.795265 -11.271204 0
M  V30 16 H 9.896529 6.044096 -6.062398 0
M  V30 17 H 8.907836 4.594579 -7.836567 0
M  V30 18 H 9.782028 9.051570 -8.822613 0
M  V30 19 H 11.444059 8.522962 -9.024712 0
M  V30 20 H 8.956693 5.239444 -10.144585 0
M  V30 END ATOM
M  V30 BEGIN BOND
M  V30 1 1 2 1
M  V30 2 2 5 3
M  V30 3 1 5 4
M  V30 4 1 6 3
M  V30 5 1 7 4
M  V30 6 1 8 1
M  V30 7 1 8 2
M  V30 8 1 9 5
M  V30 9 1 9 8
M  V30 10 2 10 4
M  V30 11 2 11 6
M  V30 12 1 11 8
M  V30 13 1 12 1
M  V30 14 1 13 1
M  V30 15 1 14 2
M  V30 16 1 15 2
M  V30 17 1 16 3
M  V30 18 1 17 6
M  V30 19 1 18 9
M  V30 20 1 19 9
M  V30 21 1 20 11
M  V30 END BOND
M  V30 END CTAB
M  END
>  <i_epik_Tot_Q>  (1) 
0

>  <i_epik_Tot_abs_Q>  (1) 
2

>  <i_i_glide_confnum>  (1) 
1

>  <i_i_glide_lignum>  (1) 
24

>  <i_i_glide_posenum>  (1) 
188

>  <i_i_glide_rotatable_bonds>  (1) 
1

>  <i_lp_mmshare_version>  (1) 
72125

>  <i_m_source_file_index>  (1) 
13

>  <i_f3d_flags>  (1) 
0

>  <num_sample>  (1) 
100

>  <b_lp_Chiralities_Consistent>  (1) 
1

>  <r_epik_Charging_Adjusted_Penalty>  (1) 
0

>  <r_epik_Ionization_Penalty>  (1) 
1.9453475992489072e-06

>  <r_epik_Ionization_Penalty_Charging>  (1) 
0

>  <r_epik_Ionization_Penalty_Neutral>  (1) 
1.9453475992489072e-06

>  <r_epik_State_Penalty>  (1) 
-0

>  <r_glide_ring_energy>  (1) 
0

>  <r_i_docking_score>  (1) 
-4.2924464497708037

>  <r_i_glide_ecoul>  (1) 
-1.1736858795614231

>  <r_i_glide_eff_state_penalty>  (1) 
-0

>  <r_i_glide_einternal>  (1) 
0.098120553294606339

>  <r_i_glide_emodel>  (1) 
-25.857286505892294

>  <r_i_glide_emodel_strain>  (1) 
0

>  <r_i_glide_energy>  (1) 
-20.69464874995835

>  <r_i_glide_erotb>  (1) 
0

>  <r_i_glide_esite>  (1) 
0

>  <r_i_glide_evdw>  (1) 
-19.520962870396929

>  <r_i_glide_gscore>  (1) 
-4.2924464497708037

>  <r_i_glide_gscore_strain>  (1) 
0

>  <r_i_glide_hbond>  (1) 
0

>  <r_i_glide_ligand_efficiency>  (1) 
-0.39022240452461854

>  <r_i_glide_ligand_efficiency_ln>  (1) 
-1.2632662590085411

>  <r_i_glide_ligand_efficiency_sa>  (1) 
-0.8678468585568373

>  <r_i_glide_lipo>  (1) 
-0.060850436056823068

>  <r_i_glide_metal>  (1) 
-0

>  <r_i_glide_rewards>  (1) 
-3.0794949882599205

>  <r_lp_Energy>  (1) 
16.789680999999998

>  <r_lp_tautomer_probability>  (1) 
1

>  <s_epik_cmdline>  (1) 
J2VwaWtfcHl0aG9uJywgJy1waHQnLCAnMS4wJywgJy1waCcsICc3LjQnLCAnLXRuJywgJzgnLCAnLW1hJywgJzUwMCcsICctaW1hZScsICc8aW5maWxlLm1hZT4nLCAnLW9tYWUnLCAnPG91dGZpbGUubWFlPic=

>  <s_epik_input>  (1) 
W0NIMl0xW0NIMl1DMTJbQ0gyXUMoW04rXShbTy1dKT1PKT1bQ0hdW0NIXT1bQ0hdMg==

>  <s_glide_docking_method>  (1) 
confgen

>  <s_i_glide_gridfile>  (1) 
gpcr_drd2_6luq_protein_autoprepared_prepared

>  <s_lp_Force_Field>  (1) 
S-OPLS

>  <s_lp_Variant>  (1) 
DiffSBDD_12-1

>  <s_m_source_file>  (1) 
generated_generic_title2_ligand_DiffSBDD_2026-06-23_prepared.sdf

>  <GenAI_Model>  (1) 
DiffSBDD

>  <Protein>  (1) 
generic_title2

$$$$
DiffSBDD_2
     RDKit          3D

  0  0  0  0  0  0  0  0  0  0999 V3000
M  V30 BEGIN CTAB
M  V30 COUNTS 70 74 0 0 1
M  V30 BEGIN ATOM
M  V30 1 C 7.659842 4.790236 -10.527141 0
M  V30 2 N 8.042203 2.222660 -16.365208 0
M  V30 3 C 8.796644 3.388952 -19.378052 0
M  V30 4 C 4.735534 -0.513595 -18.470826 0
M  V30 5 C 9.406679 -0.416109 -19.598235 0
M  V30 6 C 10.505453 7.161798 -9.463622 0 CFG=1
M  V30 7 C 6.932364 -0.938522 -19.716432 0
M  V30 8 O 6.779221 5.540337 -15.256577 0
M  V30 9 C 9.502650 6.401093 -10.317708 0
M  V30 10 C 7.433928 2.219726 -13.959014 0 CFG=2
M  V30 11 C 6.673375 1.167253 -18.298397 0
M  V30 12 C 7.128922 4.362005 -15.178411 0
M  V30 13 C 10.522987 2.101750 -18.077877 0
M  V30 14 C 11.861341 7.590134 -9.983151 0
M  V30 15 O 10.744395 8.477244 -9.985053 0
M  V30 16 O 6.590320 1.460869 -13.109447 0
M  V30 17 O 5.892324 2.040801 -18.675464 0
M  V30 18 C 8.621173 5.227669 -8.218952 0
M  V30 19 C 9.375415 6.278724 -7.439531 0
M  V30 20 C 8.389029 -1.289413 -19.492915 0
M  V30 21 C 4.256919 -1.972373 -18.391813 0
M  V30 22 F 10.840896 8.039687 -7.220572 0
M  V30 23 C 8.516112 5.920598 -12.508864 0
M  V30 24 C 7.678403 3.646856 -16.434298 0
M  V30 25 C 8.597373 5.474205 -9.726020 0
M  V30 26 C 9.128266 2.011915 -18.741136 0
M  V30 27 C 6.273032 -0.323197 -18.459872 0 CFG=1
M  V30 28 C 7.614435 5.011936 -11.917212 0
M  V30 29 C 9.451960 6.609600 -11.715930 0
M  V30 30 C 8.072236 1.496137 -17.670409 0 CFG=1
M  V30 31 C 6.572325 4.283837 -12.771165 0
M  V30 32 N 7.059630 3.651368 -14.019761 0
M  V30 33 C 10.220143 7.142610 -8.006984 0
M  V30 34 C 9.240463 1.047728 -19.958617 0
M  V30 35 C 7.288840 1.533489 -15.328340 0
M  V30 36 H 6.967537 4.098586 -10.069258 0
M  V30 37 H 9.430391 3.577977 -20.245384 0
M  V30 38 H 7.767700 3.449460 -19.729474 0
M  V30 39 H 8.973475 4.232245 -18.718252 0
M  V30 40 H 4.316385 -0.009784 -17.603197 0
M  V30 41 H 4.300026 -0.039065 -19.351961 0
M  V30 42 H 10.414786 -0.751771 -19.407909 0
M  V30 43 H 6.450347 -1.868135 -20.008658 0
M  V30 44 H 6.805794 -0.285159 -20.579064 0
M  V30 45 H 8.460282 2.146352 -13.594257 0
M  V30 46 H 11.289447 2.396283 -18.795231 0
M  V30 47 H 10.542602 2.836960 -17.273370 0
M  V30 48 H 10.826308 1.146886 -17.647509 0
M  V30 49 H 12.646203 7.868935 -9.283267 0
M  V30 50 H 12.175409 7.257374 -10.969076 0
M  V30 51 H 7.048680 0.676944 -12.844423 0
M  V30 52 H 7.595303 5.207736 -7.853545 0
M  V30 53 H 9.051305 4.250845 -8.006757 0
M  V30 54 H 9.207826 6.310440 -6.373056 0
M  V30 55 H 8.592893 -2.313334 -19.219564 0
M  V30 56 H 3.168947 -2.009742 -18.385048 0
M  V30 57 H 4.572338 -2.568380 -19.245984 0
M  V30 58 H 4.614689 -2.461232 -17.484392 0
M  V30 59 H 8.486485 6.100317 -13.569595 0
M  V30 60 H 6.973442 3.833826 -17.240195 0
M  V30 61 H 8.576670 4.209975 -16.674990 0
M  V30 62 H 6.648118 -0.850391 -17.582195 0
M  V30 63 H 10.129898 7.309510 -12.180671 0
M  V30 64 H 8.468725 0.523081 -17.383583 0
M  V30 65 H 5.798000 5.014526 -13.010647 0
M  V30 66 H 6.045215 3.574579 -12.136389 0
M  V30 67 H 10.091767 1.322481 -20.583617 0
M  V30 68 H 8.379236 1.173778 -20.612652 0
M  V30 69 H 7.630624 0.499880 -15.248127 0
M  V30 70 H 6.231820 1.487706 -15.598882 0
M  V30 END ATOM
M  V30 BEGIN BOND
M  V30 1 1 9 6
M  V30 2 2 12 8
M  V30 3 1 14 6
M  V30 4 1 6 15 CFG=3
M  V30 5 1 15 14
M  V30 6 1 16 10
M  V30 7 2 17 11
M  V30 8 1 19 18
M  V30 9 2 20 5
M  V30 10 1 20 7
M  V30 11 1 21 4
M  V30 12 1 24 2
M  V30 13 1 24 12
M  V30 14 1 25 1
M  V30 15 2 25 9
M  V30 16 1 25 18
M  V30 17 1 26 3
M  V30 18 1 26 13
M  V30 19 1 27 4
M  V30 20 1 27 7
M  V30 21 1 27 11
M  V30 22 2 28 1
M  V30 23 1 28 23
M  V30 24 1 29 9
M  V30 25 2 29 23
M  V30 26 1 30 2
M  V30 27 1 30 11
M  V30 28 1 30 26
M  V30 29 1 31 28
M  V30 30 1 32 10
M  V30 31 1 32 12
M  V30 32 1 32 31
M  V30 33 1 33 6
M  V30 34 2 33 19
M  V30 35 1 33 22
M  V30 36 1 34 5
M  V30 37 1 34 26
M  V30 38 1 35 2
M  V30 39 1 35 10
M  V30 40 1 36 1
M  V30 41 1 37 3
M  V30 42 1 38 3
M  V30 43 1 39 3
M  V30 44 1 40 4
M  V30 45 1 41 4
M  V30 46 1 42 5
M  V30 47 1 43 7
M  V30 48 1 44 7
M  V30 49 1 10 45 CFG=1
M  V30 50 1 46 13
M  V30 51 1 47 13
M  V30 52 1 48 13
M  V30 53 1 49 14
M  V30 54 1 50 14
M  V30 55 1 51 16
M  V30 56 1 52 18
M  V30 57 1 53 18
M  V30 58 1 54 19
M  V30 59 1 55 20
M  V30 60 1 56 21
M  V30 61 1 57 21
M  V30 62 1 58 21
M  V30 63 1 59 23
M  V30 64 1 60 24
M  V30 65 1 61 24
M  V30 66 1 27 62 CFG=1
M  V30 67 1 63 29
M  V30 68 1 30 64 CFG=1
M  V30 69 1 65 31
M  V30 70 1 66 31
M  V30 71 1 67 34
M  V30 72 1 68 34
M  V30 73 1 69 35
M  V30 74 1 70 35
M  V30 END BOND
M  V30 END CTAB
M  END
>  <i_epik_Tot_Q>  (1) 
0

>  <i_epik_Tot_abs_Q>  (1) 
0

>  <i_i_glide_confnum>  (1) 
18

>  <i_i_glide_lignum>  (1) 
4

>  <i_i_glide_posenum>  (1) 
207

>  <i_i_glide_rotatable_bonds>  (1) 
5

>  <i_lp_mmshare_version>  (1) 
72125

>  <i_m_source_file_index>  (1) 
3

>  <i_f3d_flags>  (1) 
0

>  <num_sample>  (1) 
100

>  <b_lp_Chiralities_Consistent>  (1) 
1

>  <r_epik_Charging_Adjusted_Penalty>  (1) 
0.083814788405558657

>  <r_epik_Ionization_Penalty>  (1) 
0.083950354633568577

>  <r_epik_Ionization_Penalty_Charging>  (1) 
0

>  <r_epik_Ionization_Penalty_Neutral>  (1) 
0.083950354633568577

>  <r_epik_State_Penalty>  (1) 
0.083814788405558657

>  <r_glide_ring_energy>  (1) 
0.49974599929525609

>  <r_i_docking_score>  (1) 
-4.2896311894509331

>  <r_i_glide_ecoul>  (1) 
0.10404141523922605

>  <r_i_glide_eff_state_penalty>  (1) 
0.083814788405558657

>  <r_i_glide_einternal>  (1) 
6.6925136632071478

>  <r_i_glide_emodel>  (1) 
-44.61363335999954

>  <r_i_glide_emodel_strain>  (1) 
0.15537617776391244

>  <r_i_glide_energy>  (1) 
-39.165246081940779

>  <r_i_glide_erotb>  (1) 
0.26141387589162818

>  <r_i_glide_esite>  (1) 
0

>  <r_i_glide_evdw>  (1) 
-39.269287497180002

>  <r_i_glide_gscore>  (1) 
-4.373445977856492

>  <r_i_glide_gscore_strain>  (1) 
0

>  <r_i_glide_hbond>  (1) 
0

>  <r_i_glide_ligand_efficiency>  (1) 
-0.12256089112716952

>  <r_i_glide_ligand_efficiency_ln>  (1) 
-0.94166924931931517

>  <r_i_glide_ligand_efficiency_sa>  (1) 
-0.40090480191277594

>  <r_i_glide_lipo>  (1) 
-1.1513584637780221

>  <r_i_glide_metal>  (1) 
-0

>  <r_i_glide_rewards>  (1) 
-1.5356432273969818

>  <r_lp_Energy>  (1) 
64.581304000000003

>  <r_lp_tautomer_probability>  (1) 
0.99999998000000001

>  <s_epik_Chemistry_Notes>  (1) 
This compound contains an acetal/aminal-like group ( X-CH(R)-Y where X, Y are N, S, or O) that may be acid/base labile, releasing an aldehyde.

>  <s_epik_cmdline>  (1) 
J2VwaWtfcHl0aG9uJywgJy1waHQnLCAnMS4wJywgJy1waCcsICc3LjQnLCAnLXRuJywgJzgnLCAnLW1hJywgJzUwMCcsICctaW1hZScsICc8aW5maWxlLm1hZT4nLCAnLW9tYWUnLCAnPG91dGZpbGUubWFlPic=

>  <s_epik_input>  (1) 
TzFbQ0gyXVtDQF0xMmMzYyhbQ0gyXVtDSF09QzJGKVtjSF1jKFtjSF1bY0hdMylbQ0gyXU4oW0NAQEhdKFtPSF0pW0NIMl00KUMoPU8pW0NIMl1ONFtDQEhdKEM1KFtDSDNdKVtDSDNdKUMoPU8pW0NAQEhdKFtDSDJdW0NIM10pW0NIMl0vW0NIXT1bQ0hdXFtDSDJdNQ==

>  <s_glide_docking_method>  (1) 
confgen

>  <s_i_glide_gridfile>  (1) 
gpcr_drd2_6luq_protein_autoprepared_prepared

>  <s_lp_Force_Field>  (1) 
S-OPLS

>  <s_lp_Variant>  (1) 
DiffSBDD_2-1

>  <s_m_source_file>  (1) 
generated_generic_title2_ligand_DiffSBDD_2026-06-23_prepared.sdf

>  <GenAI_Model>  (1) 
DiffSBDD

>  <Protein>  (1) 
generic_title2

$$$$
DiffSBDD_81
     RDKit          3D

  0  0  0  0  0  0  0  0  0  0999 V3000
M  V30 BEGIN CTAB
M  V30 COUNTS 68 71 0 0 1
M  V30 BEGIN ATOM
M  V30 1 C 7.350264 5.184349 -12.457373 0 CFG=1
M  V30 2 C 9.639877 7.525689 -6.353674 0
M  V30 3 O 10.575419 10.754696 -4.505619 0
M  V30 4 C 11.070660 10.107583 -5.653418 0
M  V30 5 C 8.175372 3.980664 -14.675536 0
M  V30 6 C 8.060505 2.910946 -16.774199 0
M  V30 7 C 8.596671 3.989079 -15.996499 0
M  V30 8 C 6.180638 5.966143 -13.110262 0
M  V30 9 O 13.745785 9.590234 -4.711034 0
M  V30 10 O 9.601600 4.367938 -12.785938 0
M  V30 11 C 8.719743 7.245531 -11.458213 0 CFG=2
M  V30 12 C 8.198570 1.409773 -18.674391 0
M  V30 13 C 6.334379 2.167120 -13.143359 0 CFG=1
M  V30 14 C 7.943453 5.918123 -11.213242 0
M  V30 15 C 6.854366 2.198473 -14.659809 0
M  V30 16 O 12.219444 9.177557 -2.956338 0
M  V30 17 N 6.809255 3.990309 -11.782187 0
M  V30 18 C 11.171340 6.320497 -4.842073 0
M  V30 19 C 7.331326 2.959166 -14.374389 0
M  V30 20 C 11.656270 8.711917 -5.351638 0 CFG=1
M  V30 21 O 5.775415 3.342108 -12.569848 0
M  V30 22 C 8.500912 4.887152 -13.500406 0 CFG=2
M  V30 23 C 9.435104 7.870451 -10.226663 0
M  V30 24 C 7.154714 1.978847 -16.076611 0
M  V30 25 C 10.240499 7.602599 -7.755197 0 CFG=2
M  V30 26 C 9.490315 7.042075 -8.944259 0 CFG=2
M  V30 27 O 7.858008 8.230780 -11.985092 0
M  V30 28 O 9.680902 3.181589 -18.460589 0
M  V30 29 C 10.766862 6.395228 -8.476610 0
M  V30 30 C 12.720522 8.764583 -4.210112 0
M  V30 31 N 8.380809 2.757294 -18.141279 0
M  V30 32 N 10.624767 7.639102 -5.226472 0 CFG=1 CHG=1
M  V30 33 H 8.902710 8.323576 -6.261833 0
M  V30 34 H 9.050840 6.611490 -6.261646 0
M  V30 35 H 10.228597 11.600893 -4.744517 0
M  V30 36 H 11.829747 10.751492 -6.099261 0
M  V30 37 H 10.283021 10.014013 -6.385088 0
M  V30 38 H 9.271660 4.733526 -16.396891 0
M  V30 39 H 6.534400 6.859295 -13.622443 0
M  V30 40 H 5.666625 5.380344 -13.872981 0
M  V30 41 H 5.440262 6.273151 -12.370268 0
M  V30 42 H 14.360049 9.074130 -5.211859 0
M  V30 43 H 9.874741 5.003675 -12.146089 0
M  V30 44 H 9.489130 7.073644 -12.208860 0
M  V30 45 H 7.136639 1.182134 -18.786844 0
M  V30 46 H 8.646748 1.319209 -19.665190 0
M  V30 47 H 8.651832 0.654713 -18.029381 0
M  V30 48 H 6.985784 1.604188 -12.477288 0
M  V30 49 H 7.156415 5.990545 -10.462369 0
M  V30 50 H 8.646141 5.245742 -10.719704 0
M  V30 51 H 12.943970 9.425075 -2.398192 0
M  V30 52 H 6.335750 4.278514 -10.936616 0
M  V30 53 H 11.904582 5.966359 -5.565504 0
M  V30 54 H 11.616733 6.331481 -3.848434 0
M  V30 55 H 10.370432 5.593482 -4.778006 0
M  V30 56 H 12.175425 8.421269 -6.260306 0
M  V30 57 H 8.826653 5.828202 -13.944127 0
M  V30 58 H 10.450975 8.139494 -10.517025 0
M  V30 59 H 8.976911 8.822262 -9.957977 0
M  V30 60 H 6.705910 1.147046 -16.599298 0
M  V30 61 H 10.761071 8.532030 -7.972702 0
M  V30 62 H 8.576609 6.508205 -8.694558 0
M  V30 63 H 7.208912 8.390199 -11.306758 0
M  V30 64 H 10.259660 2.683746 -17.902337 0
M  V30 65 H 10.694664 5.430979 -7.980683 0
M  V30 66 H 11.651452 6.563081 -9.083446 0
M  V30 67 H 13.182167 7.805785 -3.984976 0
M  V30 68 H 10.071121 7.917416 -4.428455 0
M  V30 END ATOM
M  V30 BEGIN BOND
M  V30 1 1 4 3
M  V30 2 2 7 5
M  V30 3 1 7 6
M  V30 4 1 1 8 CFG=3
M  V30 5 1 14 1
M  V30 6 1 14 11
M  V30 7 1 15 13
M  V30 8 1 17 1
M  V30 9 1 19 5
M  V30 10 1 19 13
M  V30 11 2 19 15
M  V30 12 1 20 4
M  V30 13 1 21 13
M  V30 14 1 21 17
M  V30 15 1 22 1
M  V30 16 1 22 5
M  V30 17 1 22 10
M  V30 18 1 23 11
M  V30 19 2 24 6
M  V30 20 1 24 15
M  V30 21 1 25 2
M  V30 22 1 26 23
M  V30 23 1 26 25
M  V30 24 1 27 11
M  V30 25 1 29 25
M  V30 26 1 29 26
M  V30 27 1 30 9
M  V30 28 1 30 16
M  V30 29 1 30 20
M  V30 30 1 31 6
M  V30 31 1 31 12
M  V30 32 1 31 28
M  V30 33 1 32 2
M  V30 34 1 32 18
M  V30 35 1 32 20
M  V30 36 1 33 2
M  V30 37 1 34 2
M  V30 38 1 35 3
M  V30 39 1 36 4
M  V30 40 1 37 4
M  V30 41 1 38 7
M  V30 42 1 39 8
M  V30 43 1 40 8
M  V30 44 1 41 8
M  V30 45 1 42 9
M  V30 46 1 43 10
M  V30 47 1 11 44 CFG=3
M  V30 48 1 45 12
M  V30 49 1 46 12
M  V30 50 1 47 12
M  V30 51 1 13 48 CFG=1
M  V30 52 1 49 14
M  V30 53 1 50 14
M  V30 54 1 51 16
M  V30 55 1 52 17
M  V30 56 1 53 18
M  V30 57 1 54 18
M  V30 58 1 55 18
M  V30 59 1 20 56 CFG=3
M  V30 60 1 22 57 CFG=3
M  V30 61 1 58 23
M  V30 62 1 59 23
M  V30 63 1 60 24
M  V30 64 1 25 61 CFG=3
M  V30 65 1 26 62 CFG=1
M  V30 66 1 63 27
M  V30 67 1 64 28
M  V30 68 1 65 29
M  V30 69 1 66 29
M  V30 70 1 67 30
M  V30 71 1 32 68 CFG=1
M  V30 END BOND
M  V30 END CTAB
M  END
>  <i_epik_Tot_Q>  (1) 
1

>  <i_epik_Tot_abs_Q>  (1) 
1

>  <i_i_glide_confnum>  (1) 
2727

>  <i_i_glide_lignum>  (1) 
144

>  <i_i_glide_posenum>  (1) 
71

>  <i_i_glide_rotatable_bonds>  (1) 
16

>  <i_lp_mmshare_version>  (1) 
72125

>  <i_m_source_file_index>  (1) 
82

>  <i_f3d_flags>  (1) 
0

>  <num_sample>  (1) 
100

>  <b_lp_Chiralities_Consistent>  (1) 
1

>  <r_epik_Charging_Adjusted_Penalty>  (1) 
0.61642058797261945

>  <r_epik_Ionization_Penalty>  (1) 
0.30960007796245242

>  <r_epik_Ionization_Penalty_Charging>  (1) 
0.30821029398630978

>  <r_epik_Ionization_Penalty_Neutral>  (1) 
0.0013897839761426282

>  <r_epik_State_Penalty>  (1) 
0.30821029398630967

>  <r_glide_ring_energy>  (1) 
0

>  <r_i_docking_score>  (1) 
-4.2863240787272536

>  <r_i_glide_ecoul>  (1) 
-4.8378430627807996

>  <r_i_glide_eff_state_penalty>  (1) 
0.30821029398630967

>  <r_i_glide_einternal>  (1) 
15.732462209028817

>  <r_i_glide_emodel>  (1) 
-25.968935489973713

>  <r_i_glide_emodel_strain>  (1) 
4.0001782860886124

>  <r_i_glide_energy>  (1) 
-28.177503853470313

>  <r_i_glide_erotb>  (1) 
0.97195684176611152

>  <r_i_glide_esite>  (1) 
0

>  <r_i_glide_evdw>  (1) 
-23.339660790689514

>  <r_i_glide_gscore>  (1) 
-4.5945343727135635

>  <r_i_glide_gscore_strain>  (1) 
4.4571522153091792e-05

>  <r_i_glide_hbond>  (1) 
-0.34921806987885279

>  <r_i_glide_ligand_efficiency>  (1) 
-0.13394762746022668

>  <r_i_glide_ligand_efficiency_ln>  (1) 
-0.95982480200855724

>  <r_i_glide_ligand_efficiency_sa>  (1) 
-0.42525720947801671

>  <r_i_glide_lipo>  (1) 
-1.8304676481855824

>  <r_i_glide_metal>  (1) 
-0

>  <r_i_glide_rewards>  (1) 
-1.4941905689857968

>  <r_lp_Energy>  (1) 
74.801774999999992

>  <s_epik_Chemistry_Notes>  (1) 
This compound contains an acetal/aminal-like group ( X-CH(R)-Y where X, Y are N, S, or O) that may be acid/base labile, releasing an aldehyde. This compound has a N-S or N-O group and may undergo hydrolysis at high or low pH.

>  <s_epik_cmdline>  (1) 
J2VwaWtfcHl0aG9uJywgJy1waHQnLCAnMS4wJywgJy1waCcsICc3LjQnLCAnLXRuJywgJzgnLCAnLW1hJywgJzUwMCcsICctaW1hZScsICc8aW5maWxlLm1hZT4nLCAnLW9tYWUnLCAnPG91dGZpbGUubWFlPic=

>  <s_epik_input>  (1) 
W0NIM11OKFtPSF0pYyhbY0hdMSlbY0hdYyhjMmMxMylbQ0BASF0yT1tOSF1bQ0BdKFtDSDNdKShbQ0BIXTNbT0hdKVtDSDJdW0NAQEhdKFtPSF0pW0NIMl1bQ0BASF0oW0NIMl00KVtDQEhdNFtDSDJdTihbQ0gzXSlbQ0BASF0oW0NIMl1bT0hdKVtDSF0oW09IXSlbT0hd

>  <s_glide_docking_method>  (1) 
confgen

>  <s_i_glide_gridfile>  (1) 
gpcr_drd2_6luq_protein_autoprepared_prepared

>  <s_lp_Force_Field>  (1) 
S-OPLS

>  <s_lp_Variant>  (1) 
DiffSBDD_81-2

>  <s_m_source_file>  (1) 
generated_generic_title2_ligand_DiffSBDD_2026-06-23_prepared.sdf

>  <GenAI_Model>  (1) 
DiffSBDD

>  <Protein>  (1) 
generic_title2

$$$$
DiffSBDD_64
     RDKit          3D

  0  0  0  0  0  0  0  0  0  0999 V3000
M  V30 BEGIN CTAB
M  V30 COUNTS 77 80 0 0 1
M  V30 BEGIN ATOM
M  V30 1 C 9.924799 6.044423 -10.721864 0
M  V30 2 C 7.039718 7.171718 -19.895083 0
M  V30 3 C 10.627208 7.330035 -8.661521 0 CFG=2
M  V30 4 C 6.804273 7.269148 -13.788054 0
M  V30 5 C 4.680838 4.537208 -20.367573 0
M  V30 6 C 9.378068 8.754658 -6.890104 0
M  V30 7 C 6.637499 5.855043 -13.268267 0 CFG=1
M  V30 8 O 5.893100 7.392455 -21.945692 0
M  V30 9 C 9.254512 6.218408 -7.027746 0
M  V30 10 C 11.058666 8.655669 -9.308859 0
M  V30 11 C 6.161465 7.490435 -15.126939 0
M  V30 12 C 5.542965 4.173442 -21.567373 0
M  V30 13 C 6.691874 5.180410 -21.500002 0
M  V30 14 C 7.885646 4.813162 -8.610862 0
M  V30 15 N 9.574595 6.537462 -9.361404 0 CFG=2 CHG=1
M  V30 16 C 9.000209 8.130681 -11.749584 0
M  V30 17 C 6.099088 6.468223 -20.892130 0 CFG=1
M  V30 18 C 10.136265 7.457030 -7.215459 0 CFG=1
M  V30 19 C 9.235247 5.488444 -8.372520 0 CFG=1
M  V30 20 C 7.189932 4.846844 -14.289669 0
M  V30 21 C 6.513727 5.117662 -15.634756 0
M  V30 22 C 7.296795 6.449972 -18.550311 0
M  V30 23 C 4.901583 6.258610 -17.723317 0
M  V30 24 C 4.274709 6.726054 -19.008894 0
M  V30 25 C 4.714722 6.069340 -20.337535 0 CFG=2
M  V30 26 S 7.385067 5.740545 -11.641399 0
M  V30 27 N 6.714298 6.511463 -16.092677 0 CFG=1 CHG=1
M  V30 28 C 6.271138 6.832560 -17.466724 0 CFG=1
M  V30 29 C 8.996521 6.579756 -11.803033 0 CFG=2
M  V30 30 H 9.911405 4.950069 -10.752906 0
M  V30 31 H 10.915689 6.391742 -11.002987 0
M  V30 32 H 7.995494 7.337571 -20.392132 0
M  V30 33 H 6.630324 8.165262 -19.712705 0
M  V30 34 H 11.522342 6.711357 -8.630560 0
M  V30 35 H 6.431676 7.964460 -13.035061 0
M  V30 36 H 7.856157 7.455541 -13.978403 0
M  V30 37 H 3.667400 4.147363 -20.428116 0
M  V30 38 H 5.143558 4.103442 -19.485066 0
M  V30 39 H 8.687086 9.051499 -7.679154 0
M  V30 40 H 8.783812 8.623280 -5.987849 0
M  V30 41 H 10.068554 9.585153 -6.724359 0
M  V30 42 H 5.577423 5.647671 -13.113551 0
M  V30 43 H 5.366420 6.980243 -22.614366 0
M  V30 44 H 8.235803 6.497161 -6.752727 0
M  V30 45 H 9.646898 5.586277 -6.238269 0
M  V30 46 H 11.713918 9.204276 -8.631595 0
M  V30 47 H 11.622798 8.495306 -10.227734 0
M  V30 48 H 10.213006 9.301221 -9.528569 0
M  V30 49 H 6.402291 8.502953 -15.444120 0
M  V30 50 H 5.078831 7.424662 -15.054996 0
M  V30 51 H 4.977194 4.307846 -22.489388 0
M  V30 52 H 5.888613 3.140038 -21.533273 0
M  V30 53 H 7.152605 5.340312 -22.474039 0
M  V30 54 H 7.468733 4.780297 -20.849939 0
M  V30 55 H 7.607583 4.192628 -7.759739 0
M  V30 56 H 7.123539 5.576055 -8.755861 0
M  V30 57 H 7.872971 4.180774 -9.495691 0
M  V30 58 H 10.037536 8.441564 -11.821409 0
M  V30 59 H 8.504509 8.689660 -12.535944 0
M  V30 60 H 8.596086 8.522251 -10.817952 0
M  V30 61 H 10.991599 7.400089 -6.541190 0
M  V30 62 H 10.029640 4.736773 -8.383544 0
M  V30 63 H 6.963850 3.828079 -13.967222 0
M  V30 64 H 8.273746 4.913335 -14.398671 0
M  V30 65 H 5.448692 4.997563 -15.456912 0
M  V30 66 H 6.847393 4.404551 -16.392312 0
M  V30 67 H 8.290686 6.745465 -18.223088 0
M  V30 68 H 7.344178 5.370151 -18.679639 0
M  V30 69 H 4.221409 6.527804 -16.914554 0
M  V30 70 H 4.941830 5.188706 -17.702060 0
M  V30 71 H 4.233381 7.815094 -19.082951 0
M  V30 72 H 3.296205 6.379975 -18.785025 0
M  V30 73 H 3.979961 6.363178 -21.091568 0
M  V30 74 H 6.148814 7.911050 -17.507389 0
M  V30 75 H 9.424669 6.275208 -12.757628 0
M  V30 76 H 7.716191 6.645559 -16.082962 0
M  V30 77 H 8.738102 7.115366 -9.451458 0
M  V30 END ATOM
M  V30 BEGIN BOND
M  V30 1 1 7 4
M  V30 2 1 10 3
M  V30 3 1 11 4
M  V30 4 1 12 5
M  V30 5 1 13 12
M  V30 6 1 15 1
M  V30 7 1 15 3
M  V30 8 1 17 2
M  V30 9 1 17 8 CFG=3
M  V30 10 1 17 13
M  V30 11 1 18 3
M  V30 12 1 18 6
M  V30 13 1 18 9
M  V30 14 1 19 9
M  V30 15 1 19 14
M  V30 16 1 19 15
M  V30 17 1 20 7
M  V30 18 1 21 20
M  V30 19 1 22 2
M  V30 20 1 24 23
M  V30 21 1 25 5
M  V30 22 1 25 17
M  V30 23 1 25 24
M  V30 24 1 26 7
M  V30 25 1 27 11
M  V30 26 1 27 21
M  V30 27 1 28 22
M  V30 28 1 28 23
M  V30 29 1 28 27
M  V30 30 1 29 1
M  V30 31 1 29 16
M  V30 32 1 29 26
M  V30 33 1 30 1
M  V30 34 1 31 1
M  V30 35 1 32 2
M  V30 36 1 33 2
M  V30 37 1 3 34 CFG=1
M  V30 38 1 35 4
M  V30 39 1 36 4
M  V30 40 1 37 5
M  V30 41 1 38 5
M  V30 42 1 39 6
M  V30 43 1 40 6
M  V30 44 1 41 6
M  V30 45 1 7 42 CFG=1
M  V30 46 1 43 8
M  V30 47 1 44 9
M  V30 48 1 45 9
M  V30 49 1 46 10
M  V30 50 1 47 10
M  V30 51 1 48 10
M  V30 52 1 49 11
M  V30 53 1 50 11
M  V30 54 1 51 12
M  V30 55 1 52 12
M  V30 56 1 53 13
M  V30 57 1 54 13
M  V30 58 1 55 14
M  V30 59 1 56 14
M  V30 60 1 57 14
M  V30 61 1 58 16
M  V30 62 1 59 16
M  V30 63 1 60 16
M  V30 64 1 18 61 CFG=1
M  V30 65 1 19 62 CFG=1
M  V30 66 1 63 20
M  V30 67 1 64 20
M  V30 68 1 65 21
M  V30 69 1 66 21
M  V30 70 1 67 22
M  V30 71 1 68 22
M  V30 72 1 69 23
M  V30 73 1 70 23
M  V30 74 1 71 24
M  V30 75 1 72 24
M  V30 76 1 25 73 CFG=3
M  V30 77 1 28 74 CFG=1
M  V30 78 1 29 75 CFG=3
M  V30 79 1 27 76 CFG=3
M  V30 80 1 15 77 CFG=3
M  V30 END BOND
M  V30 END CTAB
M  END
>  <i_epik_Tot_Q>  (1) 
2

>  <i_epik_Tot_abs_Q>  (1) 
2

>  <i_i_glide_confnum>  (1) 
100

>  <i_i_glide_lignum>  (1) 
105

>  <i_i_glide_posenum>  (1) 
378

>  <i_i_glide_rotatable_bonds>  (1) 
6

>  <i_lp_mmshare_version>  (1) 
72125

>  <i_m_source_file_index>  (1) 
65

>  <i_f3d_flags>  (1) 
0

>  <num_sample>  (1) 
100

>  <b_lp_Chiralities_Consistent>  (1) 
1

>  <r_epik_Charging_Adjusted_Penalty>  (1) 
0.010385271147369776

>  <r_epik_Ionization_Penalty>  (1) 
0.010385491156522124

>  <r_epik_Ionization_Penalty_Charging>  (1) 
0.010385271147369776

>  <r_epik_Ionization_Penalty_Neutral>  (1) 
2.2000915234807092e-07

>  <r_epik_State_Penalty>  (1) 
-0

>  <r_glide_ring_energy>  (1) 
0

>  <r_i_docking_score>  (1) 
-4.2760814923850861

>  <r_i_glide_ecoul>  (1) 
-2.4373228713708155

>  <r_i_glide_eff_state_penalty>  (1) 
-0

>  <r_i_glide_einternal>  (1) 
12.646757302569414

>  <r_i_glide_emodel>  (1) 
-14.975649263514754

>  <r_i_glide_emodel_strain>  (1) 
0.83616630210789822

>  <r_i_glide_energy>  (1) 
-18.352817744363058

>  <r_i_glide_erotb>  (1) 
0.5496323063178965

>  <r_i_glide_esite>  (1) 
-0.10000000000000001

>  <r_i_glide_evdw>  (1) 
-15.915494872992241

>  <r_i_glide_gscore>  (1) 
-4.2760814923850861

>  <r_i_glide_gscore_strain>  (1) 
0

>  <r_i_glide_hbond>  (1) 
-0.20000000000000001

>  <r_i_glide_ligand_efficiency>  (1) 
-0.1474510859443133

>  <r_i_glide_ligand_efficiency_ln>  (1) 
-0.97911422968531281

>  <r_i_glide_ligand_efficiency_sa>  (1) 
-0.45301645231236382

>  <r_i_glide_lipo>  (1) 
-1.9511913743477474

>  <r_i_glide_metal>  (1) 
-0

>  <r_i_glide_rewards>  (1) 
-1.4131492500000007

>  <r_lp_Energy>  (1) 
49.546199999999999

>  <r_lp_tautomer_probability>  (1) 
1

>  <s_epik_cmdline>  (1) 
J2VwaWtfcHl0aG9uJywgJy1waHQnLCAnMS4wJywgJy1waCcsICc3LjQnLCAnLXRuJywgJzgnLCAnLW1hJywgJzUwMCcsICctaW1hZScsICc8aW5maWxlLm1hZT4nLCAnLW9tYWUnLCAnPG91dGZpbGUubWFlPic=

>  <s_epik_input>  (1) 
W0NIM11bQ0BIXTFbQ0gyXVtDQEBIXShbQ0gzXSlOKFtDQEhdMVtDSDNdKVtDSDJdW0NASF0oW0NIM10pU1tDSF0yW0NIMl1bQ0gyXU4oW0NIMl1bQ0gyXTIpW0NAQEhdKFtDSDJdW0NIMl0zKVtDSDJdW0NIMl1bQ0BASF0oW0NAQF0zNFtPSF0pW0NIMl1bQ0gyXVtDSDJdNA==

>  <s_glide_docking_method>  (1) 
confgen

>  <s_i_glide_gridfile>  (1) 
gpcr_drd2_6luq_protein_autoprepared_prepared

>  <s_lp_Force_Field>  (1) 
S-OPLS

>  <s_lp_Variant>  (1) 
DiffSBDD_64-4

>  <s_m_source_file>  (1) 
generated_generic_title2_ligand_DiffSBDD_2026-06-23_prepared.sdf

>  <GenAI_Model>  (1) 
DiffSBDD

>  <Protein>  (1) 
generic_title2

$$$$
DiffSBDD_90
     RDKit          3D

  0  0  0  0  0  0  0  0  0  0999 V3000
M  V30 BEGIN CTAB
M  V30 COUNTS 80 84 0 0 1
M  V30 BEGIN ATOM
M  V30 1 C 7.562124 6.672072 -13.828168 0
M  V30 2 C 8.759377 5.860576 -13.283211 0 CFG=1
M  V30 3 C 10.051128 7.641461 -10.349814 0
M  V30 4 C 9.846647 3.883949 -17.641514 0 CFG=2
M  V30 5 C 10.948495 6.790217 -12.148550 0
M  V30 6 C 10.044843 8.342953 -9.090283 0 CFG=2
M  V30 7 C 7.141721 3.153602 -15.180831 0 CFG=2
M  V30 8 O 6.969297 5.994789 -16.093777 0
M  V30 9 C 6.847058 5.644204 -14.732461 0 CFG=1
M  V30 10 C 9.151099 5.697725 -19.398717 0
M  V30 11 O 11.213052 4.587317 -20.885436 0
M  V30 12 C 9.589317 6.533665 -12.218272 0
M  V30 13 C 7.338246 4.033754 -12.024918 0 CFG=2
M  V30 14 O 13.344565 5.090695 -20.398891 0 CHG=-1
M  V30 15 O 9.915057 2.913393 -18.511835 0 CHG=-1
M  V30 16 C 8.039349 2.680051 -16.369909 0 CFG=2
M  V30 17 N 8.430220 3.836560 -17.218291 0 CHG=1
M  V30 18 N 7.595120 4.407520 -14.560549 0
M  V30 19 C 12.437175 6.179785 -16.533903 0
M  V30 20 C 7.343567 1.612140 -17.257387 0
M  V30 21 O 7.642936 4.640239 -10.789259 0
M  V30 22 O 7.592879 0.302239 -16.794887 0
M  V30 23 O 7.774801 0.789217 -12.385320 0
M  V30 24 C 8.472166 3.141914 -12.518447 0 CFG=1
M  V30 25 C 12.124594 4.983521 -20.128908 0
M  V30 26 C 6.902635 2.023545 -14.170024 0
M  V30 27 N 11.141645 7.475561 -10.982195 0
M  V30 28 O 11.458627 5.951783 -15.828331 0
M  V30 29 C 11.548490 8.867754 -9.259592 0
M  V30 30 N 9.066988 7.086852 -11.057847 0 CHG=1
M  V30 31 C 10.185225 5.250991 -18.326502 0 CFG=2
M  V30 32 O 9.336021 6.389523 -6.220909 0
M  V30 33 O 10.174708 7.455166 -8.008803 0
M  V30 34 C 9.025899 7.191462 -7.301030 0
M  V30 35 C 13.643632 6.903959 -15.948351 0
M  V30 36 C 11.717004 5.397595 -18.704457 0
M  V30 37 C 8.112572 1.839666 -13.250055 0 CFG=2
M  V30 38 C 10.363893 6.907208 -5.389997 0
M  V30 39 N 12.600918 5.844671 -17.869429 0
M  V30 40 C 12.318825 8.024486 -10.383157 0
M  V30 41 C 8.168340 4.455013 -13.226962 0 CFG=1
M  V30 42 H 6.898542 6.955458 -13.011073 0
M  V30 43 H 7.832452 7.587743 -14.348433 0
M  V30 44 H 9.476506 5.789336 -14.101133 0
M  V30 45 H 10.429047 3.844158 -16.720669 0
M  V30 46 H 11.754626 6.556115 -12.829798 0
M  V30 47 H 9.279980 9.119710 -9.036551 0
M  V30 48 H 6.175577 3.378133 -15.583350 0
M  V30 49 H 6.329541 6.664511 -16.289242 0
M  V30 50 H 5.800937 5.516331 -14.450167 0
M  V30 51 H 9.481984 6.587319 -19.934979 0
M  V30 52 H 8.950573 4.914547 -20.129445 0
M  V30 53 H 8.188743 5.942812 -18.948786 0
M  V30 54 H 6.288793 3.781031 -12.144661 0
M  V30 55 H 8.961627 2.244650 -15.987114 0
M  V30 56 H 7.885669 3.826714 -18.066639 0
M  V30 57 H 7.711651 1.646589 -18.281610 0
M  V30 58 H 6.269113 1.783576 -17.319292 0
M  V30 59 H 7.265708 4.123594 -10.091477 0
M  V30 60 H 7.282090 -0.318544 -17.437320 0
M  V30 61 H 8.464519 0.753674 -11.724997 0
M  V30 62 H 9.382561 3.100324 -11.920008 0
M  V30 63 H 6.004871 2.232675 -13.589547 0
M  V30 64 H 6.661934 1.087869 -14.667454 0
M  V30 65 H 11.507560 9.905966 -9.587525 0
M  V30 66 H 12.094221 8.882217 -8.315324 0
M  V30 67 H 9.968868 6.020968 -17.592740 0
M  V30 68 H 8.574716 8.118700 -6.945588 0
M  V30 69 H 8.320931 6.656548 -7.938818 0
M  V30 70 H 13.399408 7.279870 -14.955679 0
M  V30 71 H 14.513925 6.248089 -15.866499 0
M  V30 72 H 13.910677 7.756526 -16.573987 0
M  V30 73 H 8.974650 1.503703 -13.819546 0
M  V30 74 H 10.378326 6.373864 -4.438427 0
M  V30 75 H 11.341298 6.776381 -5.856744 0
M  V30 76 H 10.216043 7.968891 -5.188160 0
M  V30 77 H 12.895752 7.217838 -9.936034 0
M  V30 78 H 12.926160 8.601416 -11.082831 0
M  V30 79 H 8.084457 7.075841 -10.777789 0
M  V30 80 H 8.207617 4.676637 -16.691299 0
M  V30 END ATOM
M  V30 BEGIN BOND
M  V30 1 1 2 1
M  V30 2 1 6 3
M  V30 3 1 9 1
M  V30 4 1 9 8
M  V30 5 1 12 2
M  V30 6 2 12 5
M  V30 7 1 15 4
M  V30 8 1 16 7
M  V30 9 1 17 4
M  V30 10 1 17 16
M  V30 11 1 18 7
M  V30 12 1 18 9
M  V30 13 1 20 16
M  V30 14 1 21 13
M  V30 15 1 22 20
M  V30 16 1 24 13
M  V30 17 2 25 11
M  V30 18 1 25 14
M  V30 19 1 26 7
M  V30 20 1 27 3
M  V30 21 1 27 5
M  V30 22 2 28 19
M  V30 23 1 29 6
M  V30 24 2 30 3
M  V30 25 1 30 12
M  V30 26 1 31 4
M  V30 27 1 31 10
M  V30 28 1 33 6
M  V30 29 1 34 32
M  V30 30 1 34 33
M  V30 31 1 35 19
M  V30 32 1 36 25
M  V30 33 1 36 31
M  V30 34 1 37 23
M  V30 35 1 37 24
M  V30 36 1 37 26
M  V30 37 1 38 32
M  V30 38 1 39 19
M  V30 39 2 39 36
M  V30 40 1 40 27
M  V30 41 1 40 29
M  V30 42 1 41 2
M  V30 43 1 41 13
M  V30 44 1 41 18 CFG=3
M  V30 45 1 41 24
M  V30 46 1 42 1
M  V30 47 1 43 1
M  V30 48 1 2 44 CFG=3
M  V30 49 1 4 45 CFG=1
M  V30 50 1 46 5
M  V30 51 1 6 47 CFG=1
M  V30 52 1 7 48 CFG=3
M  V30 53 1 49 8
M  V30 54 1 9 50 CFG=1
M  V30 55 1 51 10
M  V30 56 1 52 10
M  V30 57 1 53 10
M  V30 58 1 13 54 CFG=3
M  V30 59 1 16 55 CFG=1
M  V30 60 1 56 17
M  V30 61 1 57 20
M  V30 62 1 58 20
M  V30 63 1 59 21
M  V30 64 1 60 22
M  V30 65 1 61 23
M  V30 66 1 24 62 CFG=1
M  V30 67 1 63 26
M  V30 68 1 64 26
M  V30 69 1 65 29
M  V30 70 1 66 29
M  V30 71 1 31 67 CFG=1
M  V30 72 1 68 34
M  V30 73 1 69 34
M  V30 74 1 70 35
M  V30 75 1 71 35
M  V30 76 1 72 35
M  V30 77 1 37 73 CFG=3
M  V30 78 1 74 38
M  V30 79 1 75 38
M  V30 80 1 76 38
M  V30 81 1 77 40
M  V30 82 1 78 40
M  V30 83 1 79 30
M  V30 84 1 80 17
M  V30 END BOND
M  V30 END CTAB
M  END
>  <i_epik_Tot_Q>  (1) 
0

>  <i_epik_Tot_abs_Q>  (1) 
4

>  <i_i_glide_confnum>  (1) 
2981

>  <i_i_glide_lignum>  (1) 
170

>  <i_i_glide_posenum>  (1) 
369

>  <i_i_glide_rotatable_bonds>  (1) 
16

>  <i_lp_mmshare_version>  (1) 
72125

>  <i_m_source_file_index>  (1) 
91

>  <i_f3d_flags>  (1) 
0

>  <num_sample>  (1) 
100

>  <b_lp_Chiralities_Consistent>  (1) 
1

>  <r_epik_Charging_Adjusted_Penalty>  (1) 
1.4758035429533554

>  <r_epik_Ionization_Penalty>  (1) 
0.33648449588267881

>  <r_epik_Ionization_Penalty_Charging>  (1) 
0.24231300703988756

>  <r_epik_Ionization_Penalty_Neutral>  (1) 
0.094171488842791265

>  <r_epik_State_Penalty>  (1) 
1.2334905359134678

>  <r_glide_ring_energy>  (1) 
0

>  <r_i_docking_score>  (1) 
-4.2565163660089409

>  <r_i_glide_ecoul>  (1) 
-7.8824611532668341

>  <r_i_glide_eff_state_penalty>  (1) 
1.2334905359134678

>  <r_i_glide_einternal>  (1) 
15.669178113666469

>  <r_i_glide_emodel>  (1) 
-42.190635432777626

>  <r_i_glide_emodel_strain>  (1) 
1.700002501232774

>  <r_i_glide_energy>  (1) 
-36.211787972981547

>  <r_i_glide_erotb>  (1) 
0.57888693115673628

>  <r_i_glide_esite>  (1) 
-0.26206408003213394

>  <r_i_glide_evdw>  (1) 
-28.329326819714716

>  <r_i_glide_gscore>  (1) 
-5.4900069019224089

>  <r_i_glide_gscore_strain>  (1) 
0

>  <r_i_glide_hbond>  (1) 
-0.47805121824533181

>  <r_i_glide_ligand_efficiency>  (1) 
-0.10381747234168148

>  <r_i_glide_ligand_efficiency_ln>  (1) 
-0.90303411208583961

>  <r_i_glide_ligand_efficiency_sa>  (1) 
-0.35798519798154343

>  <r_i_glide_lipo>  (1) 
-2.1793451464147893

>  <r_i_glide_metal>  (1) 
-0

>  <r_i_glide_rewards>  (1) 
-0.55059787441112873

>  <r_lp_Energy>  (1) 
63.663981999999997

>  <s_epik_Chemistry_Notes>  (1) 
This compound has an imine and may undergo hydrolysis. This compound contains an acetal/aminal-like group ( X-CH(R)-Y where X, Y are N, S, or O) that may be acid/base labile, releasing an aldehyde.

>  <s_epik_cmdline>  (1) 
J2VwaWtfcHl0aG9uJywgJy1waHQnLCAnMS4wJywgJy1waCcsICc3LjQnLCAnLXRuJywgJzgnLCAnLW1hJywgJzUwMCcsICctaW1hZScsICc8aW5maWxlLm1hZT4nLCAnLW9tYWUnLCAnPG91dGZpbGUubWFlPic=

>  <s_epik_input>  (1) 
W0NIM11PW0NIMl1PW0NASF0xW0NIMl1bQ0gyXW4oYzEyKVtjSF1jKG4yKVtDQEBIXTNbQ0gyXVtDQEBIXShbT0hdKU4oW0NAQF0zNDUpW0NASF0oW0NIMl1bQ0BIXShbT0hdKVtDQEBIXTVbQ0BIXTRbT0hdKVtDQEBIXShbQ0gyXVtPSF0pW05IXVtDQEBIXShbT0hdKVtDQEhdKFtDSDNdKUMoXEMoPU8pW09IXSk9Ti9DKD1PKVtDSDNd

>  <s_glide_docking_method>  (1) 
confgen

>  <s_i_glide_gridfile>  (1) 
gpcr_drd2_6luq_protein_autoprepared_prepared

>  <s_lp_Force_Field>  (1) 
S-OPLS

>  <s_lp_Variant>  (1) 
DiffSBDD_90-5

>  <s_m_source_file>  (1) 
generated_generic_title2_ligand_DiffSBDD_2026-06-23_prepared.sdf

>  <GenAI_Model>  (1) 
DiffSBDD

>  <Protein>  (1) 
generic_title2

$$$$
DiffSBDD_48
     RDKit          3D

  0  0  0  0  0  0  0  0  0  0999 V3000
M  V30 BEGIN CTAB
M  V30 COUNTS 50 51 0 0 1
M  V30 BEGIN ATOM
M  V30 1 C 6.508521 9.529830 -22.384901 0
M  V30 2 S 6.733342 4.096635 -13.509404 0
M  V30 3 O 6.975739 10.610414 -22.385835 0
M  V30 4 N 10.174970 6.670116 -9.220822 0
M  V30 5 C 7.373422 5.715178 -17.831477 0
M  V30 6 C 5.413852 7.142154 -17.565237 0
M  V30 7 O 5.785425 3.851911 -12.412230 0
M  V30 8 C 3.373208 10.065499 -21.335995 0
M  V30 9 O 5.236938 6.858920 -20.519463 0
M  V30 10 O 7.009147 3.096165 -14.550550 0
M  V30 11 N 6.239912 5.583562 -14.267011 0
M  V30 12 C 7.538501 7.047695 -12.767409 0
M  V30 13 C 4.853269 7.931789 -21.385104 0 CFG=2
M  V30 14 C 7.316620 5.378977 -16.462877 0
M  V30 15 C 10.065575 7.393628 -8.179056 0
M  V30 16 N 8.218026 4.671212 -12.856134 0
M  V30 17 C 6.303501 5.922842 -15.639140 0
M  V30 18 C 6.493098 6.976001 -19.852972 0
M  V30 19 C 5.965809 8.330865 -22.361948 0
M  V30 20 C 5.353718 6.808319 -16.200552 0
M  V30 21 C 6.150602 6.708081 -13.338014 0
M  V30 22 O 9.527141 8.389905 -10.677198 0
M  V30 23 C 6.421315 6.597107 -18.383483 0
M  V30 24 C 9.775321 7.204783 -10.439654 0
M  V30 25 C 9.653876 6.155690 -11.553289 0
M  V30 26 C 8.201294 5.869701 -12.002930 0 CFG=1
M  V30 27 C 4.225690 9.065997 -20.538125 0
M  V30 28 H 8.150779 5.299107 -18.455635 0
M  V30 29 H 4.687190 7.820632 -17.983631 0
M  V30 30 H 2.899338 10.784892 -20.667921 0
M  V30 31 H 3.962817 10.630344 -22.056552 0
M  V30 32 H 2.581039 9.554229 -21.883481 0
M  V30 33 H 8.176844 7.377313 -13.584366 0
M  V30 34 H 7.428507 7.903597 -12.101341 0
M  V30 35 H 4.053094 7.520765 -22.001573 0
M  V30 36 H 8.051454 4.707360 -16.047321 0
M  V30 37 H 10.389832 7.013560 -7.206940 0
M  V30 38 H 9.645460 8.403831 -8.231161 0
M  V30 39 H 8.981178 4.640626 -13.530937 0
M  V30 40 H 7.216957 6.347519 -20.372600 0
M  V30 41 H 6.883070 7.990608 -19.898058 0
M  V30 42 H 6.293969 7.564242 -23.048072 0
M  V30 43 H 4.577330 7.231431 -15.586142 0
M  V30 44 H 5.712130 7.589792 -13.788294 0
M  V30 45 H 5.477211 6.440643 -12.522621 0
M  V30 46 H 10.107466 5.223350 -11.216333 0
M  V30 47 H 10.251237 6.486401 -12.403606 0
M  V30 48 H 7.595400 5.643799 -11.122623 0
M  V30 49 H 3.569241 8.614123 -19.795024 0
M  V30 50 H 4.995420 9.590362 -19.974003 0
M  V30 END ATOM
M  V30 BEGIN BOND
M  V30 1 2 3 1
M  V30 2 2 7 2
M  V30 3 2 10 2
M  V30 4 1 11 2
M  V30 5 1 13 9
M  V30 6 2 14 5
M  V30 7 2 15 4
M  V30 8 1 16 2
M  V30 9 1 17 11
M  V30 10 1 17 14
M  V30 11 1 18 9
M  V30 12 2 19 1
M  V30 13 1 19 13
M  V30 14 1 20 6
M  V30 15 2 20 17
M  V30 16 1 21 11
M  V30 17 1 21 12
M  V30 18 1 23 5
M  V30 19 2 23 6
M  V30 20 1 23 18
M  V30 21 1 24 4
M  V30 22 2 24 22
M  V30 23 1 25 24
M  V30 24 1 26 12
M  V30 25 1 26 16
M  V30 26 1 26 25
M  V30 27 1 27 8
M  V30 28 1 27 13
M  V30 29 1 28 5
M  V30 30 1 29 6
M  V30 31 1 30 8
M  V30 32 1 31 8
M  V30 33 1 32 8
M  V30 34 1 33 12
M  V30 35 1 34 12
M  V30 36 1 13 35 CFG=3
M  V30 37 1 36 14
M  V30 38 1 37 15
M  V30 39 1 38 15
M  V30 40 1 39 16
M  V30 41 1 40 18
M  V30 42 1 41 18
M  V30 43 1 42 19
M  V30 44 1 43 20
M  V30 45 1 44 21
M  V30 46 1 45 21
M  V30 47 1 46 25
M  V30 48 1 47 25
M  V30 49 1 26 48 CFG=1
M  V30 50 1 49 27
M  V30 51 1 50 27
M  V30 END BOND
M  V30 END CTAB
M  END
>  <i_epik_Tot_Q>  (1) 
0

>  <i_epik_Tot_abs_Q>  (1) 
0

>  <i_i_glide_confnum>  (1) 
472

>  <i_i_glide_lignum>  (1) 
77

>  <i_i_glide_posenum>  (1) 
286

>  <i_i_glide_rotatable_bonds>  (1) 
9

>  <i_lp_mmshare_version>  (1) 
72125

>  <i_m_source_file_index>  (1) 
49

>  <i_f3d_flags>  (1) 
0

>  <num_sample>  (1) 
100

>  <b_lp_Chiralities_Consistent>  (1) 
1

>  <r_epik_Charging_Adjusted_Penalty>  (1) 
0.28919108410989852

>  <r_epik_Ionization_Penalty>  (1) 
0.28919108415051159

>  <r_epik_Ionization_Penalty_Charging>  (1) 
0

>  <r_epik_Ionization_Penalty_Neutral>  (1) 
0.28919108415051159

>  <r_epik_State_Penalty>  (1) 
0.28919108410989852

>  <r_glide_ring_energy>  (1) 
0

>  <r_i_docking_score>  (1) 
-4.2559731343734351

>  <r_i_glide_ecoul>  (1) 
-1.8513084365233148

>  <r_i_glide_eff_state_penalty>  (1) 
0.28919108410989852

>  <r_i_glide_einternal>  (1) 
6.2372822697077277

>  <r_i_glide_emodel>  (1) 
-45.408677010185386

>  <r_i_glide_emodel_strain>  (1) 
0.97600219369483199

>  <r_i_glide_energy>  (1) 
-39.582888559824312

>  <r_i_glide_erotb>  (1) 
1.0094699416249397

>  <r_i_glide_esite>  (1) 
-0.14942562041692439

>  <r_i_glide_evdw>  (1) 
-37.731580123300994

>  <r_i_glide_gscore>  (1) 
-4.5451642184833334

>  <r_i_glide_gscore_strain>  (1) 
0

>  <r_i_glide_hbond>  (1) 
0

>  <r_i_glide_ligand_efficiency>  (1) 
-0.15762863460642351

>  <r_i_glide_ligand_efficiency_ln>  (1) 
-0.99072038048130717

>  <r_i_glide_ligand_efficiency_sa>  (1) 
-0.47288590381927065

>  <r_i_glide_lipo>  (1) 
-2.0160925844568358

>  <r_i_glide_metal>  (1) 
-0

>  <r_i_glide_rewards>  (1) 
-1.2248406835909671

>  <r_lp_Energy>  (1) 
31.284617999999998

>  <s_epik_Chemistry_Notes>  (1) 
This compound has an imine and may undergo hydrolysis.

>  <s_epik_cmdline>  (1) 
J2VwaWtfcHl0aG9uJywgJy1waHQnLCAnMS4wJywgJy1waCcsICc3LjQnLCAnLXRuJywgJzgnLCAnLW1hJywgJzUwMCcsICctaW1hZScsICc8aW5maWxlLm1hZT4nLCAnLW9tYWUnLCAnPG91dGZpbGUubWFlPic=

>  <s_epik_input>  (1) 
Tz1DPVtDSF1bQ0BIXShbQ0gyXVtDSDNdKU9bQ0gyXWMoW2NIXVtjSF0xKVtjSF1bY0hdYzFOKFMyKD1PKT1PKVtDSDJdW0NIMl1bQ0BASF0oW05IXTIpW0NIMl1DKD1PKU49W0NIMl0=

>  <s_glide_docking_method>  (1) 
confgen

>  <s_i_glide_gridfile>  (1) 
gpcr_drd2_6luq_protein_autoprepared_prepared

>  <s_lp_Force_Field>  (1) 
S-OPLS

>  <s_lp_Variant>  (1) 
DiffSBDD_48-1

>  <s_m_source_file>  (1) 
generated_generic_title2_ligand_DiffSBDD_2026-06-23_prepared.sdf

>  <GenAI_Model>  (1) 
DiffSBDD

>  <Protein>  (1) 
generic_title2

$$$$
DiffSBDD_83
     RDKit          3D

  0  0  0  0  0  0  0  0  0  0999 V3000
M  V30 BEGIN CTAB
M  V30 COUNTS 44 46 0 0 1
M  V30 BEGIN ATOM
M  V30 1 C 6.497483 4.443081 -12.485437 0
M  V30 2 C 12.174799 7.669808 -3.076093 0
M  V30 3 C 11.372454 6.971712 -5.273862 0
M  V30 4 C 10.530126 7.686357 -7.901384 0
M  V30 5 F 12.548444 9.988911 -2.651106 0
M  V30 6 C 11.775250 6.651218 -3.960575 0
M  V30 7 C 11.776422 9.336584 -4.812213 0
M  V30 8 C 7.887236 6.269505 -12.220511 0 CFG=1
M  V30 9 C 12.173640 9.011170 -3.501817 0
M  V30 10 N 6.758506 4.693066 -13.688381 0
M  V30 11 N 10.174679 6.786450 -10.998182 0
M  V30 12 C 6.954595 5.352852 -11.399629 0 CFG=2
M  V30 13 C 11.375445 8.323331 -5.704226 0
M  V30 14 C 7.527858 4.602460 -10.185916 0
M  V30 15 C 10.353529 7.161955 -12.385483 0
M  V30 16 O 10.995422 8.667645 -6.982783 0
M  V30 17 C 10.178459 8.471207 -9.171257 0
M  V30 18 F 12.557844 7.359430 -1.814579 0
M  V30 19 C 6.591837 7.038595 -14.320455 0
M  V30 20 C 9.377307 7.718328 -10.228953 0
M  V30 21 C 9.403287 6.052733 -12.012087 0 CFG=2
M  V30 22 C 7.484267 5.950734 -13.697418 0 CFG=1
M  V30 23 H 5.932285 3.561588 -12.171846 0
M  V30 24 H 11.066964 6.183264 -5.945109 0
M  V30 25 H 9.646807 7.180925 -7.505012 0
M  V30 26 H 11.299631 6.942106 -8.111060 0
M  V30 27 H 11.774299 5.620291 -3.632285 0
M  V30 28 H 11.778211 10.368121 -5.134628 0
M  V30 29 H 7.622621 7.306359 -12.024979 0
M  V30 30 H 6.761250 3.959499 -9.756617 0
M  V30 31 H 8.391063 3.990227 -10.447446 0
M  V30 32 H 7.820264 5.270948 -9.380376 0
M  V30 33 H 11.286386 6.872740 -12.865824 0
M  V30 34 H 9.934254 8.106243 -12.722180 0
M  V30 35 H 11.060727 8.947276 -9.601198 0
M  V30 36 H 9.514121 9.266425 -8.851332 0
M  V30 37 H 7.121698 7.987946 -14.373497 0
M  V30 38 H 6.292792 6.770901 -15.334359 0
M  V30 39 H 5.682819 7.194857 -13.737699 0
M  V30 40 H 8.860917 8.452050 -10.848076 0
M  V30 41 H 8.641298 7.106632 -9.730132 0
M  V30 42 H 9.742375 5.044461 -12.241378 0
M  V30 43 H 8.374266 5.847413 -14.320951 0
M  V30 44 H 6.091310 5.933972 -11.073138 0
M  V30 END ATOM
M  V30 BEGIN BOND
M  V30 1 1 6 2
M  V30 2 2 6 3
M  V30 3 2 9 2
M  V30 4 1 9 5
M  V30 5 1 9 7
M  V30 6 2 10 1
M  V30 7 1 12 1
M  V30 8 1 12 8
M  V30 9 1 13 3
M  V30 10 2 13 7
M  V30 11 1 14 12
M  V30 12 1 15 11
M  V30 13 1 16 4
M  V30 14 1 16 13
M  V30 15 1 17 4
M  V30 16 1 18 2
M  V30 17 1 20 11
M  V30 18 1 20 17
M  V30 19 1 21 8
M  V30 20 1 21 11
M  V30 21 1 21 15
M  V30 22 1 22 8
M  V30 23 1 22 10
M  V30 24 1 22 19
M  V30 25 1 23 1
M  V30 26 1 24 3
M  V30 27 1 25 4
M  V30 28 1 26 4
M  V30 29 1 27 6
M  V30 30 1 28 7
M  V30 31 1 8 29 CFG=1
M  V30 32 1 30 14
M  V30 33 1 31 14
M  V30 34 1 32 14
M  V30 35 1 33 15
M  V30 36 1 34 15
M  V30 37 1 35 17
M  V30 38 1 36 17
M  V30 39 1 37 19
M  V30 40 1 38 19
M  V30 41 1 39 19
M  V30 42 1 40 20
M  V30 43 1 41 20
M  V30 44 1 21 42 CFG=3
M  V30 45 1 22 43 CFG=3
M  V30 46 1 12 44 CFG=1
M  V30 END BOND
M  V30 END CTAB
M  END
>  <i_epik_Tot_Q>  (1) 
0

>  <i_epik_Tot_abs_Q>  (1) 
0

>  <i_i_glide_confnum>  (1) 
46

>  <i_i_glide_lignum>  (1) 
151

>  <i_i_glide_posenum>  (1) 
315

>  <i_i_glide_rotatable_bonds>  (1) 
6

>  <i_lp_mmshare_version>  (1) 
72125

>  <i_m_source_file_index>  (1) 
84

>  <i_f3d_flags>  (1) 
0

>  <num_sample>  (1) 
100

>  <b_lp_Chiralities_Consistent>  (1) 
1

>  <r_epik_Charging_Adjusted_Penalty>  (1) 
1.2980487057549497

>  <r_epik_Ionization_Penalty>  (1) 
3.173295616345865

>  <r_epik_Ionization_Penalty_Charging>  (1) 
0

>  <r_epik_Ionization_Penalty_Neutral>  (1) 
3.173295616345865

>  <r_epik_State_Penalty>  (1) 
1.2980487057549497

>  <r_glide_ring_energy>  (1) 
0

>  <r_i_docking_score>  (1) 
-4.2550918251341638

>  <r_i_glide_ecoul>  (1) 
-2.4679694587124406

>  <r_i_glide_eff_state_penalty>  (1) 
1.2980487057549497

>  <r_i_glide_einternal>  (1) 
4.0232266787711506

>  <r_i_glide_emodel>  (1) 
-38.815023292369119

>  <r_i_glide_emodel_strain>  (1) 
0

>  <r_i_glide_energy>  (1) 
-30.739222690459208

>  <r_i_glide_erotb>  (1) 
0.9727450720595302

>  <r_i_glide_esite>  (1) 
0

>  <r_i_glide_evdw>  (1) 
-28.271253231746769

>  <r_i_glide_gscore>  (1) 
-5.553140530889114

>  <r_i_glide_gscore_strain>  (1) 
0

>  <r_i_glide_hbond>  (1) 
0

>  <r_i_glide_ligand_efficiency>  (1) 
-0.19341326477882562

>  <r_i_glide_ligand_efficiency_ln>  (1) 
-1.0400996503082436

>  <r_i_glide_ligand_efficiency_sa>  (1) 
-0.54195157498073376

>  <r_i_glide_lipo>  (1) 
-2.1425895033475633

>  <r_i_glide_metal>  (1) 
-0

>  <r_i_glide_rewards>  (1) 
-2.5995380192068769

>  <r_lp_Energy>  (1) 
21.746376999999999

>  <r_lp_tautomer_probability>  (1) 
0.99998600000000004

>  <s_epik_Chemistry_Notes>  (1) 
This compound has an imine and may undergo hydrolysis.

>  <s_epik_cmdline>  (1) 
J2VwaWtfcHl0aG9uJywgJy1waHQnLCAnMS4wJywgJy1waCcsICc3LjQnLCAnLXRuJywgJzgnLCAnLW1hJywgJzUwMCcsICctaW1hZScsICc8aW5maWxlLm1hZT4nLCAnLW9tYWUnLCAnPG91dGZpbGUubWFlPic=

>  <s_epik_input>  (1) 
W0NIM11bQ0BASF0xTj1bQ0hdW0NAQEhdKFtDSDNdKVtDQEhdMVtDQEhdMltDSDJdTjJbQ0gyXVtDSDJdW0NIMl1PYyhbY0hdYzNGKVtjSF1bY0hdYzNG

>  <s_glide_docking_method>  (1) 
confgen

>  <s_i_glide_gridfile>  (1) 
gpcr_drd2_6luq_protein_autoprepared_prepared

>  <s_lp_Force_Field>  (1) 
S-OPLS

>  <s_lp_Variant>  (1) 
DiffSBDD_83-5

>  <s_m_source_file>  (1) 
generated_generic_title2_ligand_DiffSBDD_2026-06-23_prepared.sdf

>  <GenAI_Model>  (1) 
DiffSBDD

>  <Protein>  (1) 
generic_title2

$$$$
DiffSBDD_35
     RDKit          3D

  0  0  0  0  0  0  0  0  0  0999 V3000
M  V30 BEGIN CTAB
M  V30 COUNTS 57 59 0 0 1
M  V30 BEGIN ATOM
M  V30 1 O 6.871460 0.753812 -12.654170 0
M  V30 2 N 16.584001 4.808202 -16.994932 0
M  V30 3 C 16.379281 7.451532 -17.985060 0
M  V30 4 C 13.039490 4.897777 -17.913935 0
M  V30 5 C 5.872389 5.179550 -13.145887 0
M  V30 6 C 7.416877 1.914169 -13.185181 0
M  V30 7 C 14.488549 3.046489 -17.181255 0
M  V30 8 C 5.775456 6.675931 -15.179152 0
M  V30 9 C 17.668622 5.612613 -17.100068 0
M  V30 10 Cl 6.416204 6.475544 -17.726344 0
M  V30 11 O 6.670533 3.032815 -12.803940 0
M  V30 12 C 9.842388 2.756853 -18.527729 0
M  V30 13 C 7.697865 5.172919 -15.664537 0
M  V30 14 C 15.238576 6.643890 -17.867878 0
M  V30 15 S 9.102448 5.045726 -16.830877 0
M  V30 16 C 5.843033 6.553196 -13.701177 0
M  V30 17 C 12.219981 3.601594 -17.912106 0 CFG=2
M  V30 18 C 13.308950 2.503218 -18.011621 0 CFG=2
M  V30 19 C 6.737256 4.221987 -13.495924 0
M  V30 20 C 11.516321 3.246206 -20.373762 0
M  V30 21 C 11.061742 3.613462 -18.949454 0 CFG=1
M  V30 22 N 14.243414 4.479512 -17.229169 0
M  V30 23 C 6.611571 6.096816 -16.050577 0
M  V30 24 O 10.372632 5.132315 -15.985054 0
M  V30 25 C 15.380444 5.321271 -17.368980 0
M  V30 26 O 8.259298 2.483944 -16.749235 0
M  V30 27 C 9.000480 3.265347 -17.342777 0
M  V30 28 C 5.665090 0.363619 -13.289356 0
M  V30 29 F 12.886531 1.313696 -17.585003 0
M  V30 30 C 7.753268 4.366017 -14.557783 0
M  V30 31 C 17.616656 6.928038 -17.590980 0
M  V30 32 H 16.303163 8.460623 -18.362760 0
M  V30 33 H 13.260396 5.209605 -18.935575 0
M  V30 34 H 12.526430 5.703986 -17.387812 0
M  V30 35 H 5.167611 4.977940 -12.351871 0
M  V30 36 H 7.472106 1.797140 -14.268999 0
M  V30 37 H 8.427398 2.019553 -12.786634 0
M  V30 38 H 15.434839 2.722482 -17.613393 0
M  V30 39 H 14.435992 2.710145 -16.145178 0
M  V30 40 H 5.014044 7.342888 -15.557656 0
M  V30 41 H 18.607456 5.190311 -16.783978 0
M  V30 42 H 10.171939 1.741069 -18.305655 0
M  V30 43 H 9.154134 2.671199 -19.368916 0
M  V30 44 H 14.273192 7.031426 -18.153103 0
M  V30 45 H 6.712337 7.102013 -13.336255 0
M  V30 46 H 4.976082 7.061918 -13.280715 0
M  V30 47 H 11.801600 3.495912 -16.912222 0
M  V30 48 H 13.643744 2.374338 -19.040396 0
M  V30 49 H 11.789413 2.193312 -20.449289 0
M  V30 50 H 10.718881 3.424910 -21.095865 0
M  V30 51 H 12.373809 3.841953 -20.687279 0
M  V30 52 H 10.716134 4.644509 -19.027229 0
M  V30 53 H 5.179435 -0.409719 -12.697055 0
M  V30 54 H 4.964229 1.192077 -13.385683 0
M  V30 55 H 5.861641 -0.038897 -14.283714 0
M  V30 56 H 8.617279 3.727581 -14.482703 0
M  V30 57 H 18.513763 7.525350 -17.659266 0
M  V30 END ATOM
M  V30 BEGIN BOND
M  V30 1 1 6 1
M  V30 2 2 9 2
M  V30 3 1 11 6
M  V30 4 1 14 3
M  V30 5 1 15 13
M  V30 6 1 16 5
M  V30 7 1 16 8
M  V30 8 1 17 4
M  V30 9 1 18 7
M  V30 10 1 18 17
M  V30 11 2 19 5
M  V30 12 1 19 11
M  V30 13 1 21 12
M  V30 14 1 21 17
M  V30 15 1 21 20
M  V30 16 1 22 4
M  V30 17 1 22 7
M  V30 18 2 23 8
M  V30 19 1 23 10
M  V30 20 1 23 13
M  V30 21 2 24 15
M  V30 22 1 25 2
M  V30 23 2 25 14
M  V30 24 1 25 22
M  V30 25 1 27 12
M  V30 26 1 15 27 CFG=1
M  V30 27 2 27 26
M  V30 28 1 28 1
M  V30 29 1 29 18
M  V30 30 2 30 13
M  V30 31 1 30 19
M  V30 32 2 31 3
M  V30 33 1 31 9
M  V30 34 1 32 3
M  V30 35 1 33 4
M  V30 36 1 34 4
M  V30 37 1 35 5
M  V30 38 1 36 6
M  V30 39 1 37 6
M  V30 40 1 38 7
M  V30 41 1 39 7
M  V30 42 1 40 8
M  V30 43 1 41 9
M  V30 44 1 42 12
M  V30 45 1 43 12
M  V30 46 1 44 14
M  V30 47 1 45 16
M  V30 48 1 46 16
M  V30 49 1 17 47 CFG=1
M  V30 50 1 18 48 CFG=3
M  V30 51 1 49 20
M  V30 52 1 50 20
M  V30 53 1 51 20
M  V30 54 1 21 52 CFG=3
M  V30 55 1 53 28
M  V30 56 1 54 28
M  V30 57 1 55 28
M  V30 58 1 56 30
M  V30 59 1 57 31
M  V30 END BOND
M  V30 END CTAB
M  END
>  <i_epik_Tot_Q>  (1) 
0

>  <i_epik_Tot_abs_Q>  (1) 
0

>  <i_i_glide_confnum>  (1) 
273

>  <i_i_glide_lignum>  (1) 
59

>  <i_i_glide_posenum>  (1) 
152

>  <i_i_glide_rotatable_bonds>  (1) 
9

>  <i_lp_mmshare_version>  (1) 
72125

>  <i_m_source_file_index>  (1) 
36

>  <i_f3d_flags>  (1) 
0

>  <num_sample>  (1) 
100

>  <b_lp_Chiralities_Consistent>  (1) 
1

>  <r_epik_Charging_Adjusted_Penalty>  (1) 
0.099723663867704454

>  <r_epik_Ionization_Penalty>  (1) 
0.0997236638898443

>  <r_epik_Ionization_Penalty_Charging>  (1) 
0

>  <r_epik_Ionization_Penalty_Neutral>  (1) 
0.0997236638898443

>  <r_epik_State_Penalty>  (1) 
0.099723663867704454

>  <r_glide_ring_energy>  (1) 
0

>  <r_i_docking_score>  (1) 
-4.2512444427595613

>  <r_i_glide_ecoul>  (1) 
-1.7430717997835126

>  <r_i_glide_eff_state_penalty>  (1) 
0.099723663867704454

>  <r_i_glide_einternal>  (1) 
4.5278066527325098

>  <r_i_glide_emodel>  (1) 
-40.934939984198778

>  <r_i_glide_emodel_strain>  (1) 
2.2958589369053612

>  <r_i_glide_energy>  (1) 
-36.18065890725822

>  <r_i_glide_erotb>  (1) 
0.73452498433328617

>  <r_i_glide_esite>  (1) 
0

>  <r_i_glide_evdw>  (1) 
-34.437587107474705

>  <r_i_glide_gscore>  (1) 
-4.3509681066272661

>  <r_i_glide_gscore_strain>  (1) 
0

>  <r_i_glide_hbond>  (1) 
-0.32000000000000001

>  <r_i_glide_ligand_efficiency>  (1) 
-0.13713691750837295

>  <r_i_glide_ligand_efficiency_ln>  (1) 
-0.9587859068378155

>  <r_i_glide_ligand_efficiency_sa>  (1) 
-0.43079925938939734

>  <r_i_glide_lipo>  (1) 
-1.5674093093278176

>  <r_i_glide_metal>  (1) 
-0

>  <r_i_glide_rewards>  (1) 
-1.2147436562914729

>  <r_lp_Energy>  (1) 
24.480764999999998

>  <r_lp_tautomer_probability>  (1) 
1

>  <s_epik_Chemistry_Notes>  (1) 
This compound contains an acetal/aminal-like group ( X-CH(R)-Y where X, Y are N, S, or O) that may be acid/base labile, releasing an aldehyde.

>  <s_epik_cmdline>  (1) 
J2VwaWtfcHl0aG9uJywgJy1waHQnLCAnMS4wJywgJy1waCcsICc3LjQnLCAnLXRuJywgJzgnLCAnLW1hJywgJzUwMCcsICctaW1hZScsICc8aW5maWxlLm1hZT4nLCAnLW9tYWUnLCAnPG91dGZpbGUubWFlPic=

>  <s_epik_input>  (1) 
Q2xDMT1bQ0hdW0NIMl1bQ0hdPUMoT1tDSDJdT1tDSDNdKVtDSF09QzFbU0BAXSg9TylDKD1PKVtDSDJdW0NASF0oW0NIM10pW0NAQEhdMltDSDJdTihbQ0gyXVtDQEhdMkYpYzNuW2NIXVtjSF1bY0hdW2NIXTM=

>  <s_glide_docking_method>  (1) 
confgen

>  <s_i_glide_gridfile>  (1) 
gpcr_drd2_6luq_protein_autoprepared_prepared

>  <s_lp_Force_Field>  (1) 
S-OPLS

>  <s_lp_Variant>  (1) 
DiffSBDD_35-1

>  <s_m_source_file>  (1) 
generated_generic_title2_ligand_DiffSBDD_2026-06-23_prepared.sdf

>  <GenAI_Model>  (1) 
DiffSBDD

>  <Protein>  (1) 
generic_title2

$$$$
DiffSBDD_88
     RDKit          3D

  0  0  0  0  0  0  0  0  0  0999 V3000
M  V30 BEGIN CTAB
M  V30 COUNTS 36 37 0 0 1
M  V30 BEGIN ATOM
M  V30 1 C 8.106506 4.790236 -16.756676 0 CFG=1
M  V30 2 F 6.477868 4.100763 -18.385039 0
M  V30 3 C 6.311472 5.190028 -11.115608 0
M  V30 4 C 7.466272 5.035401 -10.127416 0
M  V30 5 O 5.025231 4.390209 -13.443019 0
M  V30 6 O 8.975416 6.795320 -10.785014 0
M  V30 7 O 8.549826 3.554121 -16.784639 0 CHG=-1
M  V30 8 C 8.726988 5.409193 -10.912955 0 CFG=2
M  V30 9 C 6.374384 6.412668 -15.642029 0
M  V30 10 N 6.957744 4.906384 -12.385271 0
M  V30 11 C 7.376052 5.050892 -18.111168 0 CFG=1
M  V30 12 F 4.605171 5.990237 -17.139335 0
M  V30 13 C 5.720494 6.708344 -17.015685 0 CFG=2
M  V30 14 C 6.250474 4.502119 -13.471628 0
M  V30 15 C 5.979730 6.651448 -19.557710 0
M  V30 16 N 7.047130 4.238181 -14.575648 0
M  V30 17 C 7.156193 5.065212 -15.559274 0
M  V30 18 C 8.415150 5.052214 -12.376141 0
M  V30 19 C 6.675801 6.433809 -18.202464 0 CFG=2
M  V30 20 H 8.838698 5.593857 -16.683543 0
M  V30 21 H 5.931843 6.212903 -11.121827 0
M  V30 22 H 5.489835 4.512462 -10.877049 0
M  V30 23 H 7.522351 3.990230 -9.842209 0
M  V30 24 H 7.335316 5.590250 -9.199870 0
M  V30 25 H 8.240135 7.189812 -10.311132 0
M  V30 26 H 9.601416 4.869781 -10.547126 0
M  V30 27 H 5.587078 6.499439 -14.896108 0
M  V30 28 H 7.070022 7.214284 -15.396002 0
M  V30 29 H 8.108563 4.974801 -18.915955 0
M  V30 30 H 5.392005 7.747993 -17.040373 0
M  V30 31 H 5.163741 5.942967 -19.704950 0
M  V30 32 H 5.563280 7.656465 -19.628884 0
M  V30 33 H 6.680586 6.525344 -20.383220 0
M  V30 34 H 8.764335 5.814862 -13.074764 0
M  V30 35 H 8.887002 4.102515 -12.636330 0
M  V30 36 H 7.457815 7.190017 -18.157398 0
M  V30 END ATOM
M  V30 BEGIN BOND
M  V30 1 1 4 3
M  V30 2 1 7 1
M  V30 3 1 8 4
M  V30 4 1 8 6
M  V30 5 1 10 3
M  V30 6 1 11 1
M  V30 7 1 11 2
M  V30 8 1 13 9
M  V30 9 1 13 12
M  V30 10 2 14 5
M  V30 11 1 14 10
M  V30 12 1 16 14
M  V30 13 1 17 1
M  V30 14 1 17 9
M  V30 15 2 17 16
M  V30 16 1 18 8
M  V30 17 1 18 10
M  V30 18 1 19 11
M  V30 19 1 19 13
M  V30 20 1 19 15
M  V30 21 1 1 20 CFG=1
M  V30 22 1 21 3
M  V30 23 1 22 3
M  V30 24 1 23 4
M  V30 25 1 24 4
M  V30 26 1 25 6
M  V30 27 1 8 26 CFG=1
M  V30 28 1 27 9
M  V30 29 1 28 9
M  V30 30 1 11 29 CFG=3
M  V30 31 1 13 30 CFG=1
M  V30 32 1 31 15
M  V30 33 1 32 15
M  V30 34 1 33 15
M  V30 35 1 34 18
M  V30 36 1 35 18
M  V30 37 1 19 36 CFG=1
M  V30 END BOND
M  V30 END CTAB
M  END
>  <i_epik_Tot_Q>  (1) 
-1

>  <i_epik_Tot_abs_Q>  (1) 
1

>  <i_i_glide_confnum>  (1) 
9

>  <i_i_glide_lignum>  (1) 
163

>  <i_i_glide_posenum>  (1) 
226

>  <i_i_glide_rotatable_bonds>  (1) 
3

>  <i_lp_mmshare_version>  (1) 
72125

>  <i_m_source_file_index>  (1) 
89

>  <i_f3d_flags>  (1) 
0

>  <num_sample>  (1) 
100

>  <b_lp_Chiralities_Consistent>  (1) 
1

>  <r_epik_Charging_Adjusted_Penalty>  (1) 
1.6999520965461032

>  <r_epik_Ionization_Penalty>  (1) 
0.8499760961676609

>  <r_epik_Ionization_Penalty_Charging>  (1) 
0.84997604827305151

>  <r_epik_Ionization_Penalty_Neutral>  (1) 
4.7894609424591191e-08

>  <r_epik_State_Penalty>  (1) 
0.84997604827305173

>  <r_glide_ring_energy>  (1) 
0.40670562658453302

>  <r_i_docking_score>  (1) 
-4.248487661265739

>  <r_i_glide_ecoul>  (1) 
-3.9986443953252384

>  <r_i_glide_eff_state_penalty>  (1) 
0.84997604827305173

>  <r_i_glide_einternal>  (1) 
4.3719027012498923

>  <r_i_glide_emodel>  (1) 
-30.803944412790372

>  <r_i_glide_emodel_strain>  (1) 
1.1366617017970597

>  <r_i_glide_energy>  (1) 
-26.938004879072885

>  <r_i_glide_erotb>  (1) 
0.4743209619600951

>  <r_i_glide_esite>  (1) 
0

>  <r_i_glide_evdw>  (1) 
-22.939360483747645

>  <r_i_glide_gscore>  (1) 
-5.098463709538791

>  <r_i_glide_gscore_strain>  (1) 
0

>  <r_i_glide_hbond>  (1) 
-0.16

>  <r_i_glide_ligand_efficiency>  (1) 
-0.22360461375082838

>  <r_i_glide_ligand_efficiency_ln>  (1) 
-1.0770828712790868

>  <r_i_glide_ligand_efficiency_sa>  (1) 
-0.59666691999454413

>  <r_i_glide_lipo>  (1) 
-1.0122050965621254

>  <r_i_glide_metal>  (1) 
-0

>  <r_i_glide_rewards>  (1) 
-2.6538148914505935

>  <r_lp_Energy>  (1) 
28.916074999999999

>  <s_epik_Chemistry_Notes>  (1) 
This compound has an imine and may undergo hydrolysis.

>  <s_epik_cmdline>  (1) 
J2VwaWtfcHl0aG9uJywgJy1waHQnLCAnMS4wJywgJy1waCcsICc3LjQnLCAnLXRuJywgJzgnLCAnLW1hJywgJzUwMCcsICctaW1hZScsICc8aW5maWxlLm1hZT4nLCAnLW9tYWUnLCAnPG91dGZpbGUubWFlPic=

>  <s_epik_input>  (1) 
W09IXVtDQEhdMVtDQEBIXShGKVtDQEBIXShbQ0gzXSlbQ0BASF0oRilbQ0gyXUMvMT1OXEMoPU8pTihbQ0gyXTIpW0NIMl1bQ0gyXVtDQEBIXTJbT0hd

>  <s_glide_docking_method>  (1) 
confgen

>  <s_i_glide_gridfile>  (1) 
gpcr_drd2_6luq_protein_autoprepared_prepared

>  <s_lp_Force_Field>  (1) 
S-OPLS

>  <s_lp_Variant>  (1) 
DiffSBDD_88-4

>  <s_m_source_file>  (1) 
generated_generic_title2_ligand_DiffSBDD_2026-06-23_prepared.sdf

>  <GenAI_Model>  (1) 
DiffSBDD

>  <Protein>  (1) 
generic_title2

$$$$
DiffSBDD_94
     RDKit          3D

  0  0  0  0  0  0  0  0  0  0999 V3000
M  V30 BEGIN CTAB
M  V30 COUNTS 65 69 0 0 1
M  V30 BEGIN ATOM
M  V30 1 C 5.590261 5.990447 -16.088623 0
M  V30 2 C 8.014747 6.050284 -11.754051 0
M  V30 3 O 10.216661 7.189769 -5.185040 0
M  V30 4 C 6.185138 6.948109 -15.064543 0
M  V30 5 C 10.418054 6.731476 -6.478628 0 CFG=1
M  V30 6 N 4.887844 8.445004 -21.721018 0
M  V30 7 C 4.234251 7.433242 -22.351476 0
M  V30 8 C 6.653296 5.411328 -17.026264 0 CFG=2
M  V30 9 C 6.552519 6.932049 -21.076891 0
M  V30 10 C 11.507976 7.483290 -7.216098 0 CFG=1
M  V30 11 Cl 7.741712 3.111923 -16.089604 0
M  V30 12 C 11.769757 6.106566 -6.581583 0
M  V30 13 C 7.879675 6.735374 -20.356358 0 CFG=2
M  V30 14 C 8.378223 7.912826 -12.603190 0
M  V30 15 C 7.332746 6.854343 -12.876934 0 CFG=1
M  V30 16 C 7.874896 4.887102 -16.220878 0 CFG=2
M  V30 17 C 10.001465 7.360184 -9.285862 0 CFG=1
M  V30 18 C 8.977094 6.277234 -21.332857 0
M  V30 19 C 4.709062 6.112926 -22.366089 0
M  V30 20 O 9.120052 5.015653 -14.178698 0
M  V30 21 N 6.049968 8.195564 -21.082751 0
M  V30 22 N 8.575387 7.324655 -11.282666 0 CFG=2 CHG=1
M  V30 23 C 11.392868 7.707049 -8.718888 0
M  V30 24 N 7.267876 6.338956 -14.277513 0
M  V30 25 F 11.994328 8.614541 -6.578221 0
M  V30 26 C 9.971372 7.330683 -10.809442 0
M  V30 27 C 5.909385 5.851892 -21.706004 0
M  V30 28 C 9.180345 6.178664 -7.147843 0
M  V30 29 O 9.230258 5.070334 -9.263915 0
M  V30 30 C 8.147356 5.429784 -14.798553 0
M  V30 31 C 7.775099 5.805235 -19.135948 0
M  V30 32 C 9.440650 6.099153 -8.627793 0
M  V30 33 N 6.974883 6.390844 -18.058290 0
M  V30 34 H 4.773714 6.454845 -16.644342 0
M  V30 35 H 5.164478 5.190218 -15.496985 0
M  V30 36 H 8.791990 5.326308 -11.967419 0
M  V30 37 H 7.307043 5.632690 -11.036858 0
M  V30 38 H 9.836595 6.487962 -4.675826 0
M  V30 39 H 5.377058 7.299058 -14.422140 0
M  V30 40 H 6.573836 7.835992 -15.564603 0
M  V30 41 H 3.312653 7.690516 -22.851117 0
M  V30 42 H 6.192599 4.591064 -17.581793 0
M  V30 43 H 12.288223 5.990476 -5.634660 0
M  V30 44 H 11.775136 5.207764 -7.184753 0
M  V30 45 H 8.203663 7.705482 -19.985747 0
M  V30 46 H 8.018488 8.941027 -12.584985 0
M  V30 47 H 9.269654 7.796049 -13.185010 0
M  V30 48 H 6.361259 7.192072 -12.507109 0
M  V30 49 H 8.803090 5.047003 -16.763906 0
M  V30 50 H 9.337000 8.162002 -8.961101 0
M  V30 51 H 9.091340 6.988971 -22.151587 0
M  V30 52 H 9.942753 6.198177 -20.833208 0
M  V30 53 H 8.752058 5.303979 -21.770266 0
M  V30 54 H 4.168142 5.328951 -22.874188 0
M  V30 55 H 12.174817 7.153199 -9.231130 0
M  V30 56 H 11.593353 8.760711 -8.923851 0
M  V30 57 H 10.451524 8.241180 -11.166554 0
M  V30 58 H 10.542675 6.498067 -11.223491 0
M  V30 59 H 6.332282 4.858153 -21.685924 0
M  V30 60 H 8.943928 5.190180 -6.785024 0
M  V30 61 H 8.331365 6.833062 -6.956322 0
M  V30 62 H 8.784121 5.615211 -18.773535 0
M  V30 63 H 7.363728 4.843058 -19.443984 0
M  V30 64 H 7.417671 7.212968 -17.672640 0
M  V30 65 H 7.925748 7.702630 -10.580104 0
M  V30 END ATOM
M  V30 BEGIN BOND
M  V30 1 1 4 1
M  V30 2 1 5 3 CFG=1
M  V30 3 1 7 6
M  V30 4 1 8 1
M  V30 5 1 10 5
M  V30 6 1 12 5
M  V30 7 1 12 10
M  V30 8 1 13 9
M  V30 9 1 15 2
M  V30 10 1 15 14
M  V30 11 1 16 8
M  V30 12 1 16 11
M  V30 13 1 18 13
M  V30 14 2 19 7
M  V30 15 2 21 6
M  V30 16 1 21 9
M  V30 17 1 22 2
M  V30 18 1 22 14
M  V30 19 1 23 10
M  V30 20 1 23 17
M  V30 21 1 24 4
M  V30 22 1 24 15
M  V30 23 1 10 25 CFG=1
M  V30 24 1 26 17
M  V30 25 1 26 22
M  V30 26 2 27 9
M  V30 27 1 27 19
M  V30 28 1 28 5
M  V30 29 1 30 16
M  V30 30 2 30 20
M  V30 31 1 30 24
M  V30 32 1 31 13
M  V30 33 1 32 17
M  V30 34 1 32 28
M  V30 35 2 32 29
M  V30 36 1 33 8
M  V30 37 1 33 31
M  V30 38 1 34 1
M  V30 39 1 35 1
M  V30 40 1 36 2
M  V30 41 1 37 2
M  V30 42 1 38 3
M  V30 43 1 39 4
M  V30 44 1 40 4
M  V30 45 1 41 7
M  V30 46 1 8 42 CFG=3
M  V30 47 1 43 12
M  V30 48 1 44 12
M  V30 49 1 13 45 CFG=1
M  V30 50 1 46 14
M  V30 51 1 47 14
M  V30 52 1 15 48 CFG=1
M  V30 53 1 16 49 CFG=3
M  V30 54 1 17 50 CFG=1
M  V30 55 1 51 18
M  V30 56 1 52 18
M  V30 57 1 53 18
M  V30 58 1 54 19
M  V30 59 1 55 23
M  V30 60 1 56 23
M  V30 61 1 57 26
M  V30 62 1 58 26
M  V30 63 1 59 27
M  V30 64 1 60 28
M  V30 65 1 61 28
M  V30 66 1 62 31
M  V30 67 1 63 31
M  V30 68 1 64 33
M  V30 69 1 22 65 CFG=1
M  V30 END BOND
M  V30 END CTAB
M  END
>  <i_epik_Tot_Q>  (1) 
1

>  <i_epik_Tot_abs_Q>  (1) 
1

>  <i_i_glide_confnum>  (1) 
88

>  <i_i_glide_lignum>  (1) 
182

>  <i_i_glide_posenum>  (1) 
287

>  <i_i_glide_rotatable_bonds>  (1) 
8

>  <i_lp_mmshare_version>  (1) 
72125

>  <i_m_source_file_index>  (1) 
95

>  <i_f3d_flags>  (1) 
0

>  <num_sample>  (1) 
100

>  <b_lp_Chiralities_Consistent>  (1) 
1

>  <r_epik_Charging_Adjusted_Penalty>  (1) 
1.4532026091556733

>  <r_epik_Ionization_Penalty>  (1) 
1.1658176113502041

>  <r_epik_Ionization_Penalty_Charging>  (1) 
0.22723193656236854

>  <r_epik_Ionization_Penalty_Neutral>  (1) 
0.93858567478783561

>  <r_epik_State_Penalty>  (1) 
1.2259706725933048

>  <r_glide_ring_energy>  (1) 
1.316578271852465

>  <r_i_docking_score>  (1) 
-4.2437788379469596

>  <r_i_glide_ecoul>  (1) 
-7.768851139435883

>  <r_i_glide_eff_state_penalty>  (1) 
1.2259706725933048

>  <r_i_glide_einternal>  (1) 
6.4437432817900131

>  <r_i_glide_emodel>  (1) 
-32.429135393624605

>  <r_i_glide_emodel_strain>  (1) 
3.9194605752084897

>  <r_i_glide_energy>  (1) 
-31.49782044846269

>  <r_i_glide_erotb>  (1) 
0.52602338862990483

>  <r_i_glide_esite>  (1) 
-0.17034191874119631

>  <r_i_glide_evdw>  (1) 
-23.728969309026809

>  <r_i_glide_gscore>  (1) 
-5.4697495105402645

>  <r_i_glide_gscore_strain>  (1) 
0

>  <r_i_glide_hbond>  (1) 
-0.20000000000000001

>  <r_i_glide_ligand_efficiency>  (1) 
-0.12859935872566544

>  <r_i_glide_ligand_efficiency_ln>  (1) 
-0.94379444044855654

>  <r_i_glide_ligand_efficiency_sa>  (1) 
-0.41248685792802026

>  <r_i_glide_lipo>  (1) 
-1.7364779272102553

>  <r_i_glide_metal>  (1) 
-0

>  <r_i_glide_rewards>  (1) 
-1.537176916851994

>  <r_lp_Energy>  (1) 
59.784298

>  <s_epik_cmdline>  (1) 
J2VwaWtfcHl0aG9uJywgJy1waHQnLCAnMS4wJywgJy1waCcsICc3LjQnLCAnLXRuJywgJzgnLCAnLW1hJywgJzUwMCcsICctaW1hZScsICc8aW5maWxlLm1hZT4nLCAnLW9tYWUnLCAnPG91dGZpbGUubWFlPic=

>  <s_epik_input>  (1) 
W2NIXTFbY0hdW2NIXW5uYzFbQ0BIXShbQ0gzXSlbQ0gyXVtOSF1bQ0BASF0yW0NIMl1bQ0gyXU4oQyg9TylbQ0BIXTJDbClbQ0hdM1tDSDJdTihbQ0gyXTMpW0NIMl1bQ0BASF0oQyg9TylbQ0gyXTQpW0NIMl1bQ0BdKEYpKFtDSDJdNSlbQ0BAXTQ1W09IXQ==

>  <s_glide_docking_method>  (1) 
confgen

>  <s_i_glide_gridfile>  (1) 
gpcr_drd2_6luq_protein_autoprepared_prepared

>  <s_lp_Force_Field>  (1) 
S-OPLS

>  <s_lp_Variant>  (1) 
DiffSBDD_94-5

>  <s_m_source_file>  (1) 
generated_generic_title2_ligand_DiffSBDD_2026-06-23_prepared.sdf

>  <GenAI_Model>  (1) 
DiffSBDD

>  <Protein>  (1) 
generic_title2

$$$$
DiffSBDD_76
     RDKit          3D

  0  0  0  0  0  0  0  0  0  0999 V3000
M  V30 BEGIN CTAB
M  V30 COUNTS 53 56 0 0 1
M  V30 BEGIN ATOM
M  V30 1 N 8.379358 5.478267 -12.993041 0
M  V30 2 N 11.300898 7.387590 -4.785094 0
M  V30 3 C 7.454878 4.466520 -15.110874 0 CFG=1
M  V30 4 C 10.482633 7.031870 -5.936887 0
M  V30 5 F 7.860770 4.633520 -10.062550 0
M  V30 6 C 11.775699 8.553867 -4.403343 0
M  V30 7 C 7.237175 3.028958 -14.620890 0
M  V30 8 C 7.389176 5.596152 -14.057700 0
M  V30 9 C 10.742599 7.582897 -9.409646 0
M  V30 10 C 8.188476 6.609655 -12.094650 0
M  V30 11 C 6.795244 0.383064 -13.725980 0
M  V30 12 N 11.660819 6.456683 -3.884679 0
M  V30 13 C 7.457473 0.605103 -14.946132 0
M  V30 14 C 6.357544 1.470164 -12.951440 0
M  V30 15 C 8.389863 2.131101 -16.711425 0
M  V30 16 N 11.524402 9.673266 -5.180062 0
M  V30 17 C 8.606547 3.582519 -17.151555 0
M  V30 18 C 6.574932 2.789377 -13.393080 0
M  V30 19 C 10.517653 6.589681 -8.432292 0
M  V30 20 C 8.697967 4.574691 -15.993246 0
M  V30 21 O 8.789871 1.209208 -17.421686 0
M  V30 22 C 9.546037 5.589960 -8.657074 0
M  V30 23 N 12.460332 8.550760 -3.282030 0
M  V30 24 C 11.322206 6.597399 -7.142064 0
M  V30 25 C 9.995767 7.579414 -10.604136 0
M  V30 26 C 8.798935 5.588188 -9.852612 0
M  V30 27 C 9.020695 6.584750 -10.826143 0
M  V30 28 C 12.338232 7.200971 -2.983616 0
M  V30 29 C 7.683158 1.922970 -15.403608 0
M  V30 30 H 8.243575 4.616109 -12.481533 0
M  V30 31 H 6.602172 4.654985 -15.764494 0
M  V30 32 H 9.786264 6.243769 -5.648492 0
M  V30 33 H 9.864882 7.891401 -6.200551 0
M  V30 34 H 6.387717 5.628306 -13.624447 0
M  V30 35 H 7.527598 6.554689 -14.561482 0
M  V30 36 H 11.485048 8.349505 -9.241399 0
M  V30 37 H 7.144317 6.653333 -11.778560 0
M  V30 38 H 8.389761 7.535783 -12.635063 0
M  V30 39 H 6.620404 -0.627860 -13.384339 0
M  V30 40 H 7.791216 -0.238022 -15.535312 0
M  V30 41 H 5.849836 1.292608 -12.015177 0
M  V30 42 H 11.861427 10.585374 -4.913453 0
M  V30 43 H 10.986089 9.614457 -6.032048 0
M  V30 44 H 9.517784 3.630523 -17.747976 0
M  V30 45 H 7.786380 3.863560 -17.812611 0
M  V30 46 H 6.229115 3.615390 -12.790959 0
M  V30 47 H 8.792933 5.585538 -16.390179 0
M  V30 48 H 9.598586 4.390759 -15.406133 0
M  V30 49 H 9.370985 4.828015 -7.912913 0
M  V30 50 H 12.173723 7.268091 -7.256317 0
M  V30 51 H 11.733051 5.604241 -6.959785 0
M  V30 52 H 10.162777 8.345222 -11.345658 0
M  V30 53 H 12.765695 6.759700 -2.094869 0
M  V30 END ATOM
M  V30 BEGIN BOND
M  V30 1 1 4 2
M  V30 2 1 6 2
M  V30 3 1 7 3
M  V30 4 1 8 1
M  V30 5 1 8 3
M  V30 6 1 10 1
M  V30 7 1 12 2
M  V30 8 1 13 11
M  V30 9 2 14 11
M  V30 10 1 16 6
M  V30 11 1 17 15
M  V30 12 2 18 7
M  V30 13 1 18 14
M  V30 14 1 19 9
M  V30 15 1 20 3
M  V30 16 1 20 17
M  V30 17 2 21 15
M  V30 18 2 22 19
M  V30 19 2 23 6
M  V30 20 1 24 4
M  V30 21 1 24 19
M  V30 22 2 25 9
M  V30 23 1 26 5
M  V30 24 1 26 22
M  V30 25 1 27 10
M  V30 26 1 27 25
M  V30 27 2 27 26
M  V30 28 2 28 12
M  V30 29 1 28 23
M  V30 30 1 29 7
M  V30 31 2 29 13
M  V30 32 1 29 15
M  V30 33 1 30 1
M  V30 34 1 3 31 CFG=3
M  V30 35 1 32 4
M  V30 36 1 33 4
M  V30 37 1 34 8
M  V30 38 1 35 8
M  V30 39 1 36 9
M  V30 40 1 37 10
M  V30 41 1 38 10
M  V30 42 1 39 11
M  V30 43 1 40 13
M  V30 44 1 41 14
M  V30 45 1 42 16
M  V30 46 1 43 16
M  V30 47 1 44 17
M  V30 48 1 45 17
M  V30 49 1 46 18
M  V30 50 1 47 20
M  V30 51 1 48 20
M  V30 52 1 49 22
M  V30 53 1 50 24
M  V30 54 1 51 24
M  V30 55 1 52 25
M  V30 56 1 53 28
M  V30 END BOND
M  V30 END CTAB
M  END
>  <i_epik_Tot_Q>  (1) 
0

>  <i_epik_Tot_abs_Q>  (1) 
0

>  <i_i_glide_confnum>  (1) 
320

>  <i_i_glide_lignum>  (1) 
127

>  <i_i_glide_posenum>  (1) 
109

>  <i_i_glide_rotatable_bonds>  (1) 
7

>  <i_lp_mmshare_version>  (1) 
72125

>  <i_m_source_file_index>  (1) 
77

>  <i_f3d_flags>  (1) 
0

>  <num_sample>  (1) 
100

>  <b_lp_Chiralities_Consistent>  (1) 
1

>  <r_epik_Charging_Adjusted_Penalty>  (1) 
1.3366453936174523

>  <r_epik_Ionization_Penalty>  (1) 
1.3374163863907844

>  <r_epik_Ionization_Penalty_Charging>  (1) 
0

>  <r_epik_Ionization_Penalty_Neutral>  (1) 
1.3374163863907844

>  <r_epik_State_Penalty>  (1) 
1.3366453936174523

>  <r_glide_ring_energy>  (1) 
0

>  <r_i_docking_score>  (1) 
-4.2257755407044293

>  <r_i_glide_ecoul>  (1) 
1.5771124940257066

>  <r_i_glide_eff_state_penalty>  (1) 
1.3366453936174523

>  <r_i_glide_einternal>  (1) 
7.5723890024406391

>  <r_i_glide_emodel>  (1) 
-52.409767149315122

>  <r_i_glide_emodel_strain>  (1) 
0

>  <r_i_glide_energy>  (1) 
-41.455318386396094

>  <r_i_glide_erotb>  (1) 
0.75709287640511513

>  <r_i_glide_esite>  (1) 
-0.045796629684736759

>  <r_i_glide_evdw>  (1) 
-43.032430880421799

>  <r_i_glide_gscore>  (1) 
-5.5624209343218816

>  <r_i_glide_gscore_strain>  (1) 
0

>  <r_i_glide_hbond>  (1) 
0

>  <r_i_glide_ligand_efficiency>  (1) 
-0.14571639795532515

>  <r_i_glide_ligand_efficiency_ln>  (1) 
-0.96759544239931106

>  <r_i_glide_ligand_efficiency_sa>  (1) 
-0.44768694121648034

>  <r_i_glide_lipo>  (1) 
-1.8209345641540662

>  <r_i_glide_metal>  (1) 
-0

>  <r_i_glide_rewards>  (1) 
-2.5377279469709602

>  <r_lp_Energy>  (1) 
25.916193

>  <r_lp_tautomer_probability>  (1) 
0.99994999147066566

>  <s_epik_cmdline>  (1) 
J2VwaWtfcHl0aG9uJywgJy1waHQnLCAnMS4wJywgJy1waCcsICc3LjQnLCAnLXRuJywgJzgnLCAnLW1hJywgJzUwMCcsICctaW1hZScsICc8aW5maWxlLm1hZT4nLCAnLW9tYWUnLCAnPG91dGZpbGUubWFlPic=

>  <s_epik_input>  (1) 
W2NIXTFbY0hdW2NIXVtjSF1jKGMxMilDKD1PKVtDSDJdW0NIMl1bQ0BIXTJbQ0gyXVtOSF1bQ0gyXWMoYyhGKVtjSF0zKVtjSF1bY0hdYzNbQ0gyXVtDSDJdbjRjKFtOSDJdKW5bY0hdbjQ=

>  <s_glide_docking_method>  (1) 
confgen

>  <s_i_glide_gridfile>  (1) 
gpcr_drd2_6luq_protein_autoprepared_prepared

>  <s_lp_Force_Field>  (1) 
S-OPLS

>  <s_lp_Variant>  (1) 
DiffSBDD_76-4

>  <s_m_source_file>  (1) 
generated_generic_title2_ligand_DiffSBDD_2026-06-23_prepared.sdf

>  <GenAI_Model>  (1) 
DiffSBDD

>  <Protein>  (1) 
generic_title2

$$$$
DiffSBDD_59
     RDKit          3D

  0  0  0  0  0  0  0  0  0  0999 V3000
M  V30 BEGIN CTAB
M  V30 COUNTS 68 71 0 0 1
M  V30 BEGIN ATOM
M  V30 1 C 7.469637 3.586151 -18.477258 0 CFG=2
M  V30 2 C 5.372693 3.928691 -21.050063 0
M  V30 3 C 10.843507 7.612492 -7.112036 0
M  V30 4 P 8.391298 2.717647 -17.084589 0 CFG=2
M  V30 5 C 11.375377 7.643490 -4.781618 0
M  V30 6 O 5.828243 3.919593 -13.585063 0
M  V30 7 C 8.446683 6.170902 -13.045693 0
M  V30 8 C 9.085457 5.918649 -10.689956 0
M  V30 9 C 6.921242 4.950670 -17.995121 0
M  V30 10 C 9.860004 7.100465 -10.767962 0
M  V30 11 C 10.430462 7.648305 -9.605063 0
M  V30 12 C 7.952245 0.664540 -19.784835 0
M  V30 13 N 8.486089 5.354902 -11.831363 0
M  V30 14 C 6.396627 2.683711 -19.167383 0 CFG=1
M  V30 15 O 4.617522 4.800206 -21.477937 0
M  V30 16 C 10.249756 7.022915 -8.343206 0
M  V30 17 O 7.374387 2.431564 -21.291171 0
M  V30 18 C 7.197171 1.664013 -16.152621 0
M  V30 19 C 10.814271 6.968282 -5.866131 0
M  V30 20 C 5.685057 2.383329 -23.041538 0
M  V30 21 O 5.374838 3.478863 -19.762936 0
M  V30 22 C 7.655718 1.892778 -14.712104 0 CFG=2
M  V30 23 C 7.252266 5.839972 -13.971223 0 CFG=1
M  V30 24 C 11.882382 9.386471 -6.126136 0
M  V30 25 O 6.763607 1.358320 -13.754806 0
M  V30 26 C 8.907878 5.290309 -9.448036 0
M  V30 27 C 6.906869 4.334410 -14.016880 0
M  V30 28 C 8.016974 3.403571 -14.568280 0 CFG=2
M  V30 29 C 9.483974 5.830766 -8.285898 0
M  V30 30 N 8.536473 3.874723 -15.847676 0
M  V30 31 O 9.651591 2.028563 -17.474202 0
M  V30 32 N 11.417407 8.826289 -7.249781 0
M  V30 33 N 11.900541 8.879923 -4.887727 0
M  V30 34 C 6.874829 1.662086 -20.216493 0 CFG=1
M  V30 35 C 6.400345 3.225065 -21.971686 0 CFG=1
M  V30 36 N 6.114815 6.671922 -13.584425 0
M  V30 37 H 8.228792 3.831941 -19.220934 0
M  V30 38 H 11.383362 7.196428 -3.798586 0
M  V30 39 H 9.379157 5.991378 -13.582485 0
M  V30 40 H 8.390547 7.236689 -12.828082 0
M  V30 41 H 6.469986 5.519103 -18.807592 0
M  V30 42 H 6.175585 4.839366 -17.212163 0
M  V30 43 H 7.717721 5.585124 -17.606838 0
M  V30 44 H 10.018610 7.592349 -11.712580 0
M  V30 45 H 11.011782 8.554927 -9.678639 0
M  V30 46 H 7.687370 0.157504 -18.857561 0
M  V30 47 H 8.087141 -0.100371 -20.549737 0
M  V30 48 H 8.917734 1.150917 -19.662361 0
M  V30 49 H 7.807616 4.614160 -11.721735 0
M  V30 50 H 5.880339 2.125931 -18.389729 0
M  V30 51 H 7.234366 0.621890 -16.468852 0
M  V30 52 H 6.182559 2.031413 -16.276999 0
M  V30 53 H 10.376972 5.991527 -5.740839 0
M  V30 54 H 5.019229 3.001654 -23.645232 0
M  V30 55 H 6.404059 1.921985 -23.717126 0
M  V30 56 H 5.080687 1.588903 -22.602122 0
M  V30 57 H 8.575315 1.320752 -14.583152 0
M  V30 58 H 7.518234 6.149360 -14.982194 0
M  V30 59 H 12.306733 10.373565 -6.235129 0
M  V30 60 H 6.030750 1.954035 -13.666485 0
M  V30 61 H 8.318051 4.390531 -9.382689 0
M  V30 62 H 8.820043 3.452951 -13.832552 0
M  V30 63 H 9.324892 5.334866 -7.344684 0
M  V30 64 H 9.407372 4.397051 -15.767411 0
M  V30 65 H 6.016327 1.074803 -20.547277 0
M  V30 66 H 6.953934 4.010957 -22.485542 0
M  V30 67 H 5.263913 6.349051 -14.021726 0
M  V30 68 H 5.954225 6.619540 -12.586683 0
M  V30 END ATOM
M  V30 BEGIN BOND
M  V30 1 1 4 1
M  V30 2 1 9 1
M  V30 3 1 10 8
M  V30 4 2 11 10
M  V30 5 1 13 7
M  V30 6 1 13 8
M  V30 7 1 14 1
M  V30 8 2 15 2
M  V30 9 1 16 3
M  V30 10 1 16 11
M  V30 11 1 18 4
M  V30 12 1 19 3
M  V30 13 2 19 5
M  V30 14 1 21 2
M  V30 15 1 21 14
M  V30 16 1 22 18
M  V30 17 1 23 7
M  V30 18 1 25 22
M  V30 19 2 26 8
M  V30 20 2 27 6
M  V30 21 1 27 23
M  V30 22 1 28 22
M  V30 23 1 28 27
M  V30 24 2 29 16
M  V30 25 1 29 26
M  V30 26 1 4 30 CFG=1
M  V30 27 1 30 28
M  V30 28 2 31 4
M  V30 29 2 32 3
M  V30 30 1 32 24
M  V30 31 1 33 5
M  V30 32 2 33 24
M  V30 33 1 34 12
M  V30 34 1 34 14
M  V30 35 1 34 17
M  V30 36 1 35 2
M  V30 37 1 35 17
M  V30 38 1 35 20
M  V30 39 1 36 23
M  V30 40 1 1 37 CFG=3
M  V30 41 1 38 5
M  V30 42 1 39 7
M  V30 43 1 40 7
M  V30 44 1 41 9
M  V30 45 1 42 9
M  V30 46 1 43 9
M  V30 47 1 44 10
M  V30 48 1 45 11
M  V30 49 1 46 12
M  V30 50 1 47 12
M  V30 51 1 48 12
M  V30 52 1 49 13
M  V30 53 1 14 50 CFG=1
M  V30 54 1 51 18
M  V30 55 1 52 18
M  V30 56 1 53 19
M  V30 57 1 54 20
M  V30 58 1 55 20
M  V30 59 1 56 20
M  V30 60 1 22 57 CFG=3
M  V30 61 1 23 58 CFG=3
M  V30 62 1 59 24
M  V30 63 1 60 25
M  V30 64 1 61 26
M  V30 65 1 28 62 CFG=1
M  V30 66 1 63 29
M  V30 67 1 64 30
M  V30 68 1 34 65 CFG=3
M  V30 69 1 35 66 CFG=3
M  V30 70 1 67 36
M  V30 71 1 68 36
M  V30 END BOND
M  V30 END CTAB
M  END
>  <i_epik_Tot_Q>  (1) 
0

>  <i_epik_Tot_abs_Q>  (1) 
0

>  <i_i_glide_confnum>  (1) 
660

>  <i_i_glide_lignum>  (1) 
93

>  <i_i_glide_posenum>  (1) 
301

>  <i_i_glide_rotatable_bonds>  (1) 
9

>  <i_lp_mmshare_version>  (1) 
72125

>  <i_m_source_file_index>  (1) 
60

>  <i_f3d_flags>  (1) 
0

>  <num_sample>  (1) 
100

>  <b_lp_Chiralities_Consistent>  (1) 
1

>  <r_epik_Charging_Adjusted_Penalty>  (1) 
0.17519301337449719

>  <r_epik_Ionization_Penalty>  (1) 
0.17525123447418861

>  <r_epik_Ionization_Penalty_Charging>  (1) 
0

>  <r_epik_Ionization_Penalty_Neutral>  (1) 
0.17525123447418861

>  <r_epik_State_Penalty>  (1) 
0.17519301337449719

>  <r_glide_ring_energy>  (1) 
0.33568593268258745

>  <r_i_docking_score>  (1) 
-4.2214914275857751

>  <r_i_glide_ecoul>  (1) 
-1.3372824228391558

>  <r_i_glide_eff_state_penalty>  (1) 
0.17519301337449719

>  <r_i_glide_einternal>  (1) 
18.251412176032936

>  <r_i_glide_emodel>  (1) 
-48.674733478193367

>  <r_i_glide_emodel_strain>  (1) 
0.66819686350358865

>  <r_i_glide_energy>  (1) 
-46.425323418928869

>  <r_i_glide_erotb>  (1) 
0.61329316708187109

>  <r_i_glide_esite>  (1) 
0

>  <r_i_glide_evdw>  (1) 
-45.088040996089717

>  <r_i_glide_gscore>  (1) 
-4.3966844409602723

>  <r_i_glide_gscore_strain>  (1) 
0

>  <r_i_glide_hbond>  (1) 
0

>  <r_i_glide_ligand_efficiency>  (1) 
-0.11726365076627153

>  <r_i_glide_ligand_efficiency_ln>  (1) 
-0.92101537798111976

>  <r_i_glide_ligand_efficiency_sa>  (1) 
-0.38719604377001532

>  <r_i_glide_lipo>  (1) 
-1.1678404817603854

>  <r_i_glide_metal>  (1) 
-0

>  <r_i_glide_rewards>  (1) 
-1.3871427130513991

>  <r_lp_Energy>  (1) 
53.336779999999997

>  <r_lp_tautomer_probability>  (1) 
0.99990000499974985

>  <s_epik_Chemistry_Notes>  (1) 
This compound has an ester and may undergo hydrolysis at high or low pH.

>  <s_epik_cmdline>  (1) 
J2VwaWtfcHl0aG9uJywgJy1waHQnLCAnMS4wJywgJy1waCcsICc3LjQnLCAnLXRuJywgJzgnLCAnLW1hJywgJzUwMCcsICctaW1hZScsICc8aW5maWxlLm1hZT4nLCAnLW9tYWUnLCAnPG91dGZpbGUubWFlPic=

>  <s_epik_input>  (1) 
W0NIM11bQ0BASF0xT1tDQEBIXShbQ0gzXSlbQ0BIXShPQzE9TylbQ0BASF0oW0NIM10pW1BAXTIoPU8pW0NIMl1bQ0BIXShbT0hdKVtDQEBIXShbTkhdMilDKD1PKVtDQEBIXShbTkgyXSlbQ0gyXVtOSF1jM1tjSF1bY0hdYyhbY0hdW2NIXTMpLWM0W2NIXVtjSF1uW2NIXW40

>  <s_glide_docking_method>  (1) 
confgen

>  <s_i_glide_gridfile>  (1) 
gpcr_drd2_6luq_protein_autoprepared_prepared

>  <s_lp_Force_Field>  (1) 
S-OPLS

>  <s_lp_Variant>  (1) 
DiffSBDD_59-1

>  <s_m_source_file>  (1) 
generated_generic_title2_ligand_DiffSBDD_2026-06-23_prepared.sdf

>  <GenAI_Model>  (1) 
DiffSBDD

>  <Protein>  (1) 
generic_title2

$$$$
DiffSBDD_73
     RDKit          3D

  0  0  0  0  0  0  0  0  0  0999 V3000
M  V30 BEGIN CTAB
M  V30 COUNTS 73 79 0 0 1
M  V30 BEGIN ATOM
M  V30 1 O 6.441481 7.561432 -11.985029 0
M  V30 2 C 9.341857 8.693296 -7.103678 0
M  V30 3 C 5.754122 5.542067 -14.103860 0
M  V30 4 C 7.438729 6.745320 -12.572026 0 CFG=2
M  V30 5 O 7.725856 4.424976 -13.329312 0
M  V30 6 C 6.392559 5.824421 -15.472801 0
M  V30 7 C 11.863624 7.731885 -8.394808 0
M  V30 8 C 6.310330 5.770080 -19.676655 0 CFG=2
M  V30 9 O 5.473708 8.024348 -19.840550 0
M  V30 10 C 6.771888 5.401379 -12.962748 0 CFG=2
M  V30 11 C 7.235786 7.273961 -22.296195 0
M  V30 12 C 10.162328 7.641400 -6.429240 0 CFG=1
M  V30 13 F 4.175355 6.390581 -18.952184 0
M  V30 14 C 10.826460 8.496776 -9.169149 0 CFG=1
M  V30 15 F 4.356617 9.105404 -23.071156 0
M  V30 16 C 9.500330 6.221421 -9.394910 0 CFG=1
M  V30 17 C 4.963012 7.844841 -21.166602 0 CFG=2
M  V30 18 C 5.417743 6.849609 -19.036164 0 CFG=1
M  V30 19 C 9.137075 5.815721 -7.965524 0
M  V30 20 C 5.875201 7.170106 -17.631286 0 CFG=1
M  V30 21 C 5.819325 6.790001 -21.928833 0 CFG=1
M  V30 22 C 4.976094 7.766532 -16.568268 0
M  V30 23 F 3.952151 9.966028 -21.143300 0
M  V30 24 C 10.132589 6.229714 -6.903520 0 CFG=1
M  V30 25 C 9.219254 7.937506 -11.111839 0
M  V30 26 F 5.206540 6.482914 -23.071474 0
M  V30 27 C 4.825858 9.232125 -21.833197 0
M  V30 28 C 8.512580 5.699852 -10.433506 0 CFG=1
M  V30 29 C 8.678770 6.611163 -11.655765 0 CFG=1
M  V30 30 C 5.393212 6.316554 -16.486612 0 CFG=2
M  V30 31 C 9.643719 7.705446 -9.670077 0 CFG=2
M  V30 32 O 8.858589 4.382432 -10.785955 0
M  V30 33 F 5.985575 9.887089 -21.869809 0
M  V30 34 C 5.867980 5.483651 -21.113582 0
M  V30 35 F 6.283640 4.647576 -18.956792 0
M  V30 36 C 9.468431 8.787396 -8.615101 0 CFG=1
M  V30 37 C 11.376292 7.080590 -7.104315 0 CFG=1
M  V30 38 H 6.577120 7.590048 -11.030303 0
M  V30 39 H 8.298022 8.625168 -6.794134 0
M  V30 40 H 9.775199 9.590347 -6.702194 0
M  V30 41 H 5.168183 4.627367 -14.160373 0
M  V30 42 H 5.045594 6.331484 -13.854961 0
M  V30 43 H 7.773764 7.269210 -13.465440 0
M  V30 44 H 8.204196 4.200808 -12.535423 0
M  V30 45 H 7.183104 6.566918 -15.397716 0
M  V30 46 H 6.863473 4.919366 -15.858897 0
M  V30 47 H 12.175474 6.962203 -9.084439 0
M  V30 48 H 12.712804 8.381999 -8.178456 0
M  V30 49 H 7.348014 6.099998 -19.663502 0
M  V30 50 H 6.252551 5.007177 -12.088233 0
M  V30 51 H 7.772928 7.648682 -21.424758 0
M  V30 52 H 7.828928 6.468381 -22.728553 0
M  V30 53 H 7.206227 8.072806 -23.036761 0
M  V30 54 H 10.232991 7.771430 -5.351081 0
M  V30 55 H 11.247337 9.229237 -9.852606 0
M  V30 56 H 10.466295 5.780818 -9.586044 0
M  V30 57 H 3.949281 7.452622 -21.095969 0
M  V30 58 H 8.175162 6.225155 -7.690864 0
M  V30 59 H 9.027345 4.733075 -7.923662 0
M  V30 60 H 6.920020 7.455438 -17.583083 0
M  V30 61 H 3.939830 7.973581 -16.828524 0
M  V30 62 H 5.423435 8.457873 -15.856958 0
M  V30 63 H 10.124154 5.590235 -6.038113 0
M  V30 64 H 10.068924 8.264921 -11.711428 0
M  V30 65 H 8.483722 8.742198 -11.148239 0
M  V30 66 H 7.493291 5.732419 -10.049855 0
M  V30 67 H 9.486227 6.197894 -12.265862 0
M  V30 68 H 4.611924 5.595885 -16.714914 0
M  V30 69 H 9.800395 4.324547 -10.846600 0
M  V30 70 H 4.877574 5.023949 -21.098332 0
M  V30 71 H 6.532320 4.752448 -21.574665 0
M  V30 72 H 8.885724 9.590132 -9.033189 0
M  V30 73 H 12.175399 6.734666 -6.465753 0
M  V30 END ATOM
M  V30 BEGIN BOND
M  V30 1 1 4 1
M  V30 2 1 6 3
M  V30 3 1 10 3
M  V30 4 1 10 4
M  V30 5 1 10 5
M  V30 6 1 12 2
M  V30 7 1 14 7
M  V30 8 1 17 9
M  V30 9 1 18 8
M  V30 10 1 18 9
M  V30 11 1 18 13 CFG=1
M  V30 12 1 19 16
M  V30 13 1 20 18
M  V30 14 1 21 11
M  V30 15 1 21 17
M  V30 16 1 22 20
M  V30 17 1 24 12
M  V30 18 1 24 19
M  V30 19 1 21 26 CFG=3
M  V30 20 1 27 15
M  V30 21 1 27 17
M  V30 22 1 27 23
M  V30 23 1 28 16
M  V30 24 1 29 4
M  V30 25 1 29 25
M  V30 26 1 29 28
M  V30 27 1 30 6
M  V30 28 1 30 20
M  V30 29 1 30 22
M  V30 30 1 31 14
M  V30 31 1 31 16
M  V30 32 1 31 25 CFG=3
M  V30 33 1 32 28
M  V30 34 1 33 27
M  V30 35 1 34 8
M  V30 36 1 34 21
M  V30 37 1 35 8
M  V30 38 1 36 2
M  V30 39 1 36 14
M  V30 40 1 36 31
M  V30 41 1 37 7
M  V30 42 1 37 12
M  V30 43 1 37 24
M  V30 44 1 38 1
M  V30 45 1 39 2
M  V30 46 1 40 2
M  V30 47 1 41 3
M  V30 48 1 42 3
M  V30 49 1 4 43 CFG=3
M  V30 50 1 44 5
M  V30 51 1 45 6
M  V30 52 1 46 6
M  V30 53 1 47 7
M  V30 54 1 48 7
M  V30 55 1 8 49 CFG=3
M  V30 56 1 10 50 CFG=1
M  V30 57 1 51 11
M  V30 58 1 52 11
M  V30 59 1 53 11
M  V30 60 1 12 54 CFG=1
M  V30 61 1 14 55 CFG=3
M  V30 62 1 16 56 CFG=3
M  V30 63 1 17 57 CFG=1
M  V30 64 1 58 19
M  V30 65 1 59 19
M  V30 66 1 20 60 CFG=3
M  V30 67 1 61 22
M  V30 68 1 62 22
M  V30 69 1 24 63 CFG=1
M  V30 70 1 64 25
M  V30 71 1 65 25
M  V30 72 1 28 66 CFG=1
M  V30 73 1 29 67 CFG=3
M  V30 74 1 30 68 CFG=3
M  V30 75 1 69 32
M  V30 76 1 70 34
M  V30 77 1 71 34
M  V30 78 1 36 72 CFG=3
M  V30 79 1 37 73 CFG=1
M  V30 END BOND
M  V30 END CTAB
M  END
>  <i_epik_Tot_Q>  (1) 
0

>  <i_epik_Tot_abs_Q>  (1) 
0

>  <i_i_glide_confnum>  (1) 
6

>  <i_i_glide_lignum>  (1) 
120

>  <i_i_glide_posenum>  (1) 
350

>  <i_i_glide_rotatable_bonds>  (1) 
10

>  <i_lp_mmshare_version>  (1) 
72125

>  <i_m_source_file_index>  (1) 
74

>  <i_f3d_flags>  (1) 
0

>  <num_sample>  (1) 
100

>  <b_lp_Chiralities_Consistent>  (1) 
1

>  <r_epik_Charging_Adjusted_Penalty>  (1) 
0

>  <r_epik_Ionization_Penalty>  (1) 
7.8331544483768561e-07

>  <r_epik_Ionization_Penalty_Charging>  (1) 
0

>  <r_epik_Ionization_Penalty_Neutral>  (1) 
7.8331544483768561e-07

>  <r_epik_State_Penalty>  (1) 
-0

>  <r_glide_ring_energy>  (1) 
0

>  <r_i_docking_score>  (1) 
-4.2213060902728143

>  <r_i_glide_ecoul>  (1) 
-5.7308625119292333

>  <r_i_glide_eff_state_penalty>  (1) 
-0

>  <r_i_glide_einternal>  (1) 
8.3711714043113705

>  <r_i_glide_emodel>  (1) 
-27.956181974238866

>  <r_i_glide_emodel_strain>  (1) 
2.2316878839449714

>  <r_i_glide_energy>  (1) 
-33.345412917495075

>  <r_i_glide_erotb>  (1) 
0.42742290402324423

>  <r_i_glide_esite>  (1) 
0

>  <r_i_glide_evdw>  (1) 
-27.614550405565844

>  <r_i_glide_gscore>  (1) 
-4.2213060902728143

>  <r_i_glide_gscore_strain>  (1) 
0

>  <r_i_glide_hbond>  (1) 
-0.16

>  <r_i_glide_ligand_efficiency>  (1) 
-0.11408935379115714

>  <r_i_glide_ligand_efficiency_ln>  (1) 
-0.9155023295246697

>  <r_i_glide_ligand_efficiency_sa>  (1) 
-0.38017103774305999

>  <r_i_glide_lipo>  (1) 
-2.3965916682813204

>  <r_i_glide_metal>  (1) 
-0

>  <r_i_glide_rewards>  (1) 
0.14821957105293992

>  <r_lp_Energy>  (1) 
61.599440999999999

>  <r_lp_tautomer_probability>  (1) 
1

>  <s_epik_cmdline>  (1) 
J2VwaWtfcHl0aG9uJywgJy1waHQnLCAnMS4wJywgJy1waCcsICc3LjQnLCAnLXRuJywgJzgnLCAnLW1hJywgJzUwMCcsICctaW1hZScsICc8aW5maWxlLm1hZT4nLCAnLW9tYWUnLCAnPG91dGZpbGUubWFlPic=

>  <s_epik_input>  (1) 
QzEyM1tDQEhdNFtDQEBIXTNbQ0gyXVtDQEhdNVtDQEhdKFtDQEhdNVtDSDJdNClbQ0gyXVtDQEhdMVtDQEhdKFtPSF0pW0NASF0oW0NIMl0yKVtDQEBIXShbT0hdKVtDQEhdKFtPSF0pW0NIMl1bQ0gyXVtDQEhdNltDSDJdW0NAQEhdNltDQF03KEYpW0NAQEhdKEYpW0NIMl1bQ0BdKEYpKFtDSDNdKVtDQEBIXShPNylDKEYpKEYpRg==

>  <s_glide_docking_method>  (1) 
confgen

>  <s_i_glide_gridfile>  (1) 
gpcr_drd2_6luq_protein_autoprepared_prepared

>  <s_lp_Force_Field>  (1) 
S-OPLS

>  <s_lp_Variant>  (1) 
DiffSBDD_73-1

>  <s_m_source_file>  (1) 
generated_generic_title2_ligand_DiffSBDD_2026-06-23_prepared.sdf

>  <GenAI_Model>  (1) 
DiffSBDD

>  <Protein>  (1) 
generic_title2

$$$$
DiffSBDD_88
     RDKit          3D

  0  0  0  0  0  0  0  0  0  0999 V3000
M  V30 BEGIN CTAB
M  V30 COUNTS 36 37 0 0 1
M  V30 BEGIN ATOM
M  V30 1 C 10.583619 7.783347 -9.719987 0 CFG=1
M  V30 2 F 12.350463 9.082458 -8.811806 0
M  V30 3 C 8.430666 5.151847 -13.913205 0
M  V30 4 C 7.308381 4.146580 -14.168533 0
M  V30 5 O 10.553543 6.076773 -12.385025 0
M  V30 6 O 5.375405 5.222911 -13.250051 0
M  V30 7 O 9.775356 8.790230 -9.585028 0 CHG=-1
M  V30 8 C 6.371936 4.273184 -12.960574 0 CFG=2
M  V30 9 C 9.375707 6.247489 -7.989110 0
M  V30 10 N 8.453144 5.244362 -12.461940 0
M  V30 11 C 11.682181 7.946115 -8.644110 0 CFG=1
M  V30 12 F 10.073770 6.390201 -5.718963 0
M  V30 13 C 10.522961 6.428475 -6.972131 0 CFG=2
M  V30 14 C 9.542225 5.691220 -11.790694 0
M  V30 15 C 10.563218 8.957002 -6.504038 0
M  V30 16 N 9.375445 5.645887 -10.391266 0
M  V30 17 C 9.756153 6.480610 -9.465791 0
M  V30 18 C 7.232816 4.791699 -11.798687 0
M  V30 19 C 11.267016 7.756681 -7.162054 0 CFG=2
M  V30 20 H 11.150935 7.664593 -10.638516 0
M  V30 21 H 8.182424 6.127974 -14.332185 0
M  V30 22 H 9.376323 4.813189 -14.341287 0
M  V30 23 H 7.733222 3.141785 -14.179881 0
M  V30 24 H 6.808317 4.297510 -15.126167 0
M  V30 25 H 5.788774 6.073009 -13.287660 0
M  V30 26 H 5.889543 3.324531 -12.722313 0
M  V30 27 H 8.575409 6.941454 -7.736238 0
M  V30 28 H 8.946828 5.250826 -7.881227 0
M  V30 29 H 12.427391 7.190302 -8.868003 0
M  V30 30 H 11.222779 5.598218 -7.074973 0
M  V30 31 H 9.572806 9.124908 -6.927436 0
M  V30 32 H 10.442655 8.812006 -5.431421 0
M  V30 33 H 11.146461 9.867635 -6.636051 0
M  V30 34 H 6.752154 5.597237 -11.238061 0
M  V30 35 H 7.459910 3.990238 -11.098867 0
M  V30 36 H 12.175413 7.664081 -6.593495 0
M  V30 END ATOM
M  V30 BEGIN BOND
M  V30 1 1 4 3
M  V30 2 1 7 1
M  V30 3 1 8 4
M  V30 4 1 8 6
M  V30 5 1 10 3
M  V30 6 1 11 1
M  V30 7 1 11 2
M  V30 8 1 13 9
M  V30 9 1 13 12
M  V30 10 2 14 5
M  V30 11 1 14 10
M  V30 12 1 16 14
M  V30 13 1 17 1
M  V30 14 1 17 9
M  V30 15 2 17 16
M  V30 16 1 18 8
M  V30 17 1 18 10
M  V30 18 1 19 11
M  V30 19 1 19 13
M  V30 20 1 19 15
M  V30 21 1 1 20 CFG=3
M  V30 22 1 21 3
M  V30 23 1 22 3
M  V30 24 1 23 4
M  V30 25 1 24 4
M  V30 26 1 25 6
M  V30 27 1 8 26 CFG=1
M  V30 28 1 27 9
M  V30 29 1 28 9
M  V30 30 1 11 29 CFG=3
M  V30 31 1 13 30 CFG=1
M  V30 32 1 31 15
M  V30 33 1 32 15
M  V30 34 1 33 15
M  V30 35 1 34 18
M  V30 36 1 35 18
M  V30 37 1 19 36 CFG=1
M  V30 END BOND
M  V30 END CTAB
M  END
>  <i_epik_Tot_Q>  (1) 
-1

>  <i_epik_Tot_abs_Q>  (1) 
1

>  <i_i_glide_confnum>  (1) 
15

>  <i_i_glide_lignum>  (1) 
162

>  <i_i_glide_posenum>  (1) 
182

>  <i_i_glide_rotatable_bonds>  (1) 
3

>  <i_lp_mmshare_version>  (1) 
72125

>  <i_m_source_file_index>  (1) 
89

>  <i_f3d_flags>  (1) 
0

>  <num_sample>  (1) 
100

>  <b_lp_Chiralities_Consistent>  (1) 
1

>  <r_epik_Charging_Adjusted_Penalty>  (1) 
1.6999520965461032

>  <r_epik_Ionization_Penalty>  (1) 
0.8499760961676609

>  <r_epik_Ionization_Penalty_Charging>  (1) 
0.84997604827305151

>  <r_epik_Ionization_Penalty_Neutral>  (1) 
4.7894609424591191e-08

>  <r_epik_State_Penalty>  (1) 
0.84997604827305173

>  <r_glide_ring_energy>  (1) 
0.47595862597002003

>  <r_i_docking_score>  (1) 
-4.2204941092378689

>  <r_i_glide_ecoul>  (1) 
1.2939272532280688

>  <r_i_glide_eff_state_penalty>  (1) 
0.84997604827305173

>  <r_i_glide_einternal>  (1) 
5.0782362413465538

>  <r_i_glide_emodel>  (1) 
-29.796960989186438

>  <r_i_glide_emodel_strain>  (1) 
2.2454310696056368

>  <r_i_glide_energy>  (1) 
-27.442210518147515

>  <r_i_glide_erotb>  (1) 
0.4743209619600951

>  <r_i_glide_esite>  (1) 
-0.083590346528781334

>  <r_i_glide_evdw>  (1) 
-28.736137771375585

>  <r_i_glide_gscore>  (1) 
-5.070470157510921

>  <r_i_glide_gscore_strain>  (1) 
0

>  <r_i_glide_hbond>  (1) 
0

>  <r_i_glide_ligand_efficiency>  (1) 
-0.22213126890725626

>  <r_i_glide_ligand_efficiency_ln>  (1) 
-1.0699859045936531

>  <r_i_glide_ligand_efficiency_sa>  (1) 
-0.59273544418482038

>  <r_i_glide_lipo>  (1) 
-1.1937856152796749

>  <r_i_glide_metal>  (1) 
-0

>  <r_i_glide_rewards>  (1) 
-3.0246973570779909

>  <r_lp_Energy>  (1) 
36.246699999999997

>  <s_epik_Chemistry_Notes>  (1) 
This compound has an imine and may undergo hydrolysis.

>  <s_epik_cmdline>  (1) 
J2VwaWtfcHl0aG9uJywgJy1waHQnLCAnMS4wJywgJy1waCcsICc3LjQnLCAnLXRuJywgJzgnLCAnLW1hJywgJzUwMCcsICctaW1hZScsICc8aW5maWxlLm1hZT4nLCAnLW9tYWUnLCAnPG91dGZpbGUubWFlPic=

>  <s_epik_input>  (1) 
W09IXVtDQEhdMVtDQEBIXShGKVtDQEBIXShbQ0gzXSlbQ0BASF0oRilbQ0gyXUNcMT1OXEMoPU8pTihbQ0gyXTIpW0NIMl1bQ0gyXVtDQEBIXTJbT0hd

>  <s_glide_docking_method>  (1) 
confgen

>  <s_i_glide_gridfile>  (1) 
gpcr_drd2_6luq_protein_autoprepared_prepared

>  <s_lp_Force_Field>  (1) 
S-OPLS

>  <s_lp_Variant>  (1) 
DiffSBDD_88-3

>  <s_m_source_file>  (1) 
generated_generic_title2_ligand_DiffSBDD_2026-06-23_prepared.sdf

>  <GenAI_Model>  (1) 
DiffSBDD

>  <Protein>  (1) 
generic_title2

$$$$
DiffSBDD_59
     RDKit          3D

  0  0  0  0  0  0  0  0  0  0999 V3000
M  V30 BEGIN CTAB
M  V30 COUNTS 68 71 0 0 1
M  V30 BEGIN ATOM
M  V30 1 C 7.282547 2.105371 -18.601876 0 CFG=2
M  V30 2 C 5.581568 3.111399 -21.233468 0
M  V30 3 C 10.782893 7.750164 -7.090020 0
M  V30 4 P 7.762665 1.085252 -17.091363 0 CFG=2
M  V30 5 C 11.375469 7.999673 -4.785052 0
M  V30 6 O 6.246629 3.392966 -13.169219 0
M  V30 7 C 8.318437 5.498905 -12.812545 0
M  V30 8 C 8.976016 5.632351 -10.427939 0
M  V30 9 C 7.312763 3.619590 -18.287073 0
M  V30 10 C 9.749025 6.801590 -10.661337 0
M  V30 11 C 10.329906 7.495436 -9.575323 0
M  V30 12 C 6.701083 -0.829707 -19.812045 0
M  V30 13 N 8.392506 4.886026 -11.485701 0
M  V30 14 C 5.976859 1.621778 -19.308216 0 CFG=1
M  V30 15 O 5.112173 4.127652 -21.742831 0
M  V30 16 C 10.158294 7.034151 -8.242433 0
M  V30 17 O 6.993568 1.009888 -21.323711 0
M  V30 18 C 6.267374 0.560742 -16.160545 0
M  V30 19 C 10.770841 7.236219 -5.782507 0
M  V30 20 C 5.900837 1.742119 -23.345586 0
M  V30 21 O 5.315760 2.697866 -19.964100 0
M  V30 22 C 6.676327 0.784297 -14.692591 0 CFG=2
M  V30 23 C 8.271000 4.473714 -13.977141 0 CFG=1
M  V30 24 C 11.881663 9.588641 -6.305682 0
M  V30 25 O 5.540204 0.790235 -13.854137 0
M  V30 26 C 8.790608 5.190874 -9.108824 0
M  V30 27 C 7.272845 3.288636 -13.839437 0
M  V30 28 C 7.682913 1.985369 -14.602929 0 CFG=2
M  V30 29 C 9.375609 5.875443 -8.031229 0
M  V30 30 N 8.175430 2.254860 -15.944288 0
M  V30 31 O 8.773497 0.018701 -17.330394 0
M  V30 32 N 11.375295 8.934550 -7.362852 0
M  V30 33 N 11.934923 9.197256 -5.027970 0
M  V30 34 C 6.125419 0.488645 -20.337309 0 CFG=1
M  V30 35 C 6.538038 2.175112 -22.021494 0 CFG=1
M  V30 36 N 8.065151 5.200928 -15.228126 0
M  V30 37 H 8.107658 1.964160 -19.300221 0
M  V30 38 H 11.401455 7.650392 -3.763389 0
M  V30 39 H 9.179568 6.109123 -13.056670 0
M  V30 40 H 7.441757 6.147423 -12.840544 0
M  V30 41 H 7.133115 4.232333 -19.169826 0
M  V30 42 H 6.575440 3.892470 -17.537690 0
M  V30 43 H 8.295852 3.924392 -17.926972 0
M  V30 44 H 9.906705 7.171104 -11.656513 0
M  V30 45 H 10.917775 8.380192 -9.766285 0
M  V30 46 H 6.135108 -1.201059 -18.956589 0
M  V30 47 H 6.671182 -1.594689 -20.588932 0
M  V30 48 H 7.743940 -0.722328 -19.519777 0
M  V30 49 H 7.731841 4.154399 -11.264169 0
M  V30 50 H 5.273732 1.288318 -18.548628 0
M  V30 51 H 5.999330 -0.471580 -16.386351 0
M  V30 52 H 5.422150 1.190021 -16.416523 0
M  V30 53 H 10.318538 6.287657 -5.548716 0
M  V30 54 H 5.657022 2.607447 -23.960577 0
M  V30 55 H 6.579850 1.107237 -23.913630 0
M  V30 56 H 4.977097 1.190254 -23.185113 0
M  V30 57 H 7.237742 -0.103009 -14.396219 0
M  V30 58 H 9.266267 4.032998 -14.021911 0
M  V30 59 H 12.281663 10.568199 -6.506345 0
M  V30 60 H 5.821742 0.848953 -12.954043 0
M  V30 61 H 8.192495 4.322949 -8.916930 0
M  V30 62 H 8.522580 1.591746 -14.029339 0
M  V30 63 H 9.213596 5.510507 -7.034060 0
M  V30 64 H 9.137301 2.587107 -15.951075 0
M  V30 65 H 5.153230 0.272251 -20.783092 0
M  V30 66 H 7.428217 2.758811 -22.257972 0
M  V30 67 H 7.977546 4.569250 -16.010309 0
M  V30 68 H 7.208732 5.736906 -15.200117 0
M  V30 END ATOM
M  V30 BEGIN BOND
M  V30 1 1 4 1
M  V30 2 1 9 1
M  V30 3 1 10 8
M  V30 4 2 11 10
M  V30 5 1 13 7
M  V30 6 1 13 8
M  V30 7 1 14 1
M  V30 8 2 15 2
M  V30 9 1 16 3
M  V30 10 1 16 11
M  V30 11 1 18 4
M  V30 12 1 19 3
M  V30 13 2 19 5
M  V30 14 1 21 2
M  V30 15 1 21 14
M  V30 16 1 22 18
M  V30 17 1 23 7
M  V30 18 1 25 22
M  V30 19 2 26 8
M  V30 20 2 27 6
M  V30 21 1 27 23
M  V30 22 1 28 22
M  V30 23 1 28 27
M  V30 24 2 29 16
M  V30 25 1 29 26
M  V30 26 1 4 30 CFG=1
M  V30 27 1 30 28
M  V30 28 2 31 4
M  V30 29 2 32 3
M  V30 30 1 32 24
M  V30 31 1 33 5
M  V30 32 2 33 24
M  V30 33 1 34 12
M  V30 34 1 34 14
M  V30 35 1 34 17
M  V30 36 1 35 2
M  V30 37 1 35 17
M  V30 38 1 35 20
M  V30 39 1 36 23
M  V30 40 1 1 37 CFG=3
M  V30 41 1 38 5
M  V30 42 1 39 7
M  V30 43 1 40 7
M  V30 44 1 41 9
M  V30 45 1 42 9
M  V30 46 1 43 9
M  V30 47 1 44 10
M  V30 48 1 45 11
M  V30 49 1 46 12
M  V30 50 1 47 12
M  V30 51 1 48 12
M  V30 52 1 49 13
M  V30 53 1 14 50 CFG=1
M  V30 54 1 51 18
M  V30 55 1 52 18
M  V30 56 1 53 19
M  V30 57 1 54 20
M  V30 58 1 55 20
M  V30 59 1 56 20
M  V30 60 1 22 57 CFG=1
M  V30 61 1 23 58 CFG=3
M  V30 62 1 59 24
M  V30 63 1 60 25
M  V30 64 1 61 26
M  V30 65 1 28 62 CFG=1
M  V30 66 1 63 29
M  V30 67 1 64 30
M  V30 68 1 34 65 CFG=3
M  V30 69 1 35 66 CFG=3
M  V30 70 1 67 36
M  V30 71 1 68 36
M  V30 END BOND
M  V30 END CTAB
M  END
>  <i_epik_Tot_Q>  (1) 
0

>  <i_epik_Tot_abs_Q>  (1) 
0

>  <i_i_glide_confnum>  (1) 
297

>  <i_i_glide_lignum>  (1) 
93

>  <i_i_glide_posenum>  (1) 
359

>  <i_i_glide_rotatable_bonds>  (1) 
9

>  <i_lp_mmshare_version>  (1) 
72125

>  <i_m_source_file_index>  (1) 
60

>  <i_f3d_flags>  (1) 
0

>  <num_sample>  (1) 
100

>  <b_lp_Chiralities_Consistent>  (1) 
1

>  <r_epik_Charging_Adjusted_Penalty>  (1) 
0.17519301337449719

>  <r_epik_Ionization_Penalty>  (1) 
0.17525123447418861

>  <r_epik_Ionization_Penalty_Charging>  (1) 
0

>  <r_epik_Ionization_Penalty_Neutral>  (1) 
0.17525123447418861

>  <r_epik_State_Penalty>  (1) 
0.17519301337449719

>  <r_glide_ring_energy>  (1) 
0.33568593268258745

>  <r_i_docking_score>  (1) 
-4.2176170115260305

>  <r_i_glide_ecoul>  (1) 
-1.3284085198939688

>  <r_i_glide_eff_state_penalty>  (1) 
0.17519301337449719

>  <r_i_glide_einternal>  (1) 
7.8290120786468407

>  <r_i_glide_emodel>  (1) 
-51.837596517866125

>  <r_i_glide_emodel_strain>  (1) 
3.2303002178248335

>  <r_i_glide_energy>  (1) 
-46.949702489788841

>  <r_i_glide_erotb>  (1) 
0.61329316708187109

>  <r_i_glide_esite>  (1) 
0

>  <r_i_glide_evdw>  (1) 
-45.621293969894872

>  <r_i_glide_gscore>  (1) 
-4.3928100249005277

>  <r_i_glide_gscore_strain>  (1) 
0

>  <r_i_glide_hbond>  (1) 
0

>  <r_i_glide_ligand_efficiency>  (1) 
-0.11715602809794529

>  <r_i_glide_ligand_efficiency_ln>  (1) 
-0.92017008507150888

>  <r_i_glide_ligand_efficiency_sa>  (1) 
-0.38684068154887014

>  <r_i_glide_lipo>  (1) 
-1.2207621640175588

>  <r_i_glide_metal>  (1) 
-0

>  <r_i_glide_rewards>  (1) 
-1.3050150514860017

>  <r_lp_Energy>  (1) 
53.336779999999997

>  <r_lp_tautomer_probability>  (1) 
0.99990000499974985

>  <s_epik_Chemistry_Notes>  (1) 
This compound has an ester and may undergo hydrolysis at high or low pH.

>  <s_epik_cmdline>  (1) 
J2VwaWtfcHl0aG9uJywgJy1waHQnLCAnMS4wJywgJy1waCcsICc3LjQnLCAnLXRuJywgJzgnLCAnLW1hJywgJzUwMCcsICctaW1hZScsICc8aW5maWxlLm1hZT4nLCAnLW9tYWUnLCAnPG91dGZpbGUubWFlPic=

>  <s_epik_input>  (1) 
W0NIM11bQ0BASF0xT1tDQEBIXShbQ0gzXSlbQ0BIXShPQzE9TylbQ0BASF0oW0NIM10pW1BAXTIoPU8pW0NIMl1bQ0BIXShbT0hdKVtDQEBIXShbTkhdMilDKD1PKVtDQEBIXShbTkgyXSlbQ0gyXVtOSF1jM1tjSF1bY0hdYyhbY0hdW2NIXTMpLWM0W2NIXVtjSF1uW2NIXW40

>  <s_glide_docking_method>  (1) 
confgen

>  <s_i_glide_gridfile>  (1) 
gpcr_drd2_6luq_protein_autoprepared_prepared

>  <s_lp_Force_Field>  (1) 
S-OPLS

>  <s_lp_Variant>  (1) 
DiffSBDD_59-1

>  <s_m_source_file>  (1) 
generated_generic_title2_ligand_DiffSBDD_2026-06-23_prepared.sdf

>  <GenAI_Model>  (1) 
DiffSBDD

>  <Protein>  (1) 
generic_title2

$$$$
DiffSBDD_34
     RDKit          3D

  0  0  0  0  0  0  0  0  0  0999 V3000
M  V30 BEGIN CTAB
M  V30 COUNTS 48 50 0 0 1
M  V30 BEGIN ATOM
M  V30 1 O 12.328268 0.988540 -19.712435 0
M  V30 2 C 7.217756 4.501458 -13.812100 0
M  V30 3 C 7.375253 7.326265 -13.548409 0
M  V30 4 C 11.885300 2.159663 -19.030408 0 CFG=2
M  V30 5 C 13.078006 0.661900 -17.571603 0
M  V30 6 C 7.379354 1.225073 -15.469688 0
M  V30 7 C 12.390098 2.013582 -17.583527 0
M  V30 8 C 13.459731 0.471130 -19.032417 0
M  V30 9 C 7.000838 0.294267 -14.491813 0
M  V30 10 N 7.412480 2.563278 -15.249608 0
M  V30 11 C 7.944344 4.280873 -11.338551 0
M  V30 12 C 7.652548 6.514802 -12.446374 0
M  V30 13 C 6.712999 2.137845 -12.966337 0
M  V30 14 C 7.115775 3.015789 -13.999382 0
M  V30 15 C 9.978215 2.553998 -20.672065 0
M  V30 16 O 9.583235 0.123060 -18.912471 0
M  V30 17 C 6.656701 0.763126 -13.221999 0
M  V30 18 C 7.774471 0.754625 -16.862789 0
M  V30 19 C 7.583392 5.113420 -12.554741 0
M  V30 20 C 9.495987 1.291323 -18.537191 0
M  V30 21 C 10.358928 2.386875 -19.190654 0 CFG=1
M  V30 22 C 7.020935 6.753840 -14.774750 0
M  V30 23 C 6.951148 5.357296 -14.912623 0
M  V30 24 N 8.662762 1.681964 -17.561370 0
M  V30 25 Cl 6.176250 -0.331221 -11.984178 0
M  V30 26 H 7.437380 8.395839 -13.452480 0
M  V30 27 H 12.412201 3.000971 -19.480350 0
M  V30 28 H 12.372133 -0.114287 -17.275468 0
M  V30 29 H 13.929708 0.621411 -16.894754 0
M  V30 30 H 13.109101 2.803751 -17.357608 0
M  V30 31 H 11.594836 2.073402 -16.841185 0
M  V30 32 H 13.644685 -0.572156 -19.290475 0
M  V30 33 H 14.343927 1.055868 -19.288455 0
M  V30 34 H 6.976436 -0.763895 -14.713932 0
M  V30 35 H 7.064854 4.035215 -10.742872 0
M  V30 36 H 8.521250 3.395641 -11.600922 0
M  V30 37 H 8.594384 4.861558 -10.683489 0
M  V30 38 H 7.932767 6.969301 -11.505214 0
M  V30 39 H 6.439328 2.512500 -12.001467 0
M  V30 40 H 8.916926 2.776145 -20.787608 0
M  V30 41 H 10.531888 3.372395 -21.130082 0
M  V30 42 H 10.196034 1.649840 -21.243477 0
M  V30 43 H 8.248410 -0.224022 -16.765931 0
M  V30 44 H 6.869245 0.612636 -17.454942 0
M  V30 45 H 10.123758 3.327856 -18.694319 0
M  V30 46 H 6.805466 7.389446 -15.621028 0
M  V30 47 H 6.676064 4.932896 -15.866215 0
M  V30 48 H 8.635858 2.652474 -17.290926 0
M  V30 END ATOM
M  V30 BEGIN BOND
M  V30 1 1 4 1
M  V30 2 1 7 4
M  V30 3 1 7 5
M  V30 4 1 8 1
M  V30 5 1 8 5
M  V30 6 1 9 6
M  V30 7 2 10 6
M  V30 8 1 12 3
M  V30 9 1 14 2
M  V30 10 1 14 10
M  V30 11 2 14 13
M  V30 12 2 17 9
M  V30 13 1 17 13
M  V30 14 1 18 6
M  V30 15 1 19 2
M  V30 16 1 19 11
M  V30 17 2 19 12
M  V30 18 2 20 16
M  V30 19 1 21 4
M  V30 20 1 21 15
M  V30 21 1 21 20
M  V30 22 2 22 3
M  V30 23 2 23 2
M  V30 24 1 23 22
M  V30 25 1 24 18
M  V30 26 1 24 20
M  V30 27 1 25 17
M  V30 28 1 26 3
M  V30 29 1 4 27 CFG=3
M  V30 30 1 28 5
M  V30 31 1 29 5
M  V30 32 1 30 7
M  V30 33 1 31 7
M  V30 34 1 32 8
M  V30 35 1 33 8
M  V30 36 1 34 9
M  V30 37 1 35 11
M  V30 38 1 36 11
M  V30 39 1 37 11
M  V30 40 1 38 12
M  V30 41 1 39 13
M  V30 42 1 40 15
M  V30 43 1 41 15
M  V30 44 1 42 15
M  V30 45 1 43 18
M  V30 46 1 44 18
M  V30 47 1 21 45 CFG=1
M  V30 48 1 46 22
M  V30 49 1 47 23
M  V30 50 1 48 24
M  V30 END BOND
M  V30 END CTAB
M  END
>  <i_epik_Tot_Q>  (1) 
0

>  <i_epik_Tot_abs_Q>  (1) 
0

>  <i_i_glide_confnum>  (1) 
93

>  <i_i_glide_lignum>  (1) 
58

>  <i_i_glide_posenum>  (1) 
86

>  <i_i_glide_rotatable_bonds>  (1) 
6

>  <i_lp_mmshare_version>  (1) 
72125

>  <i_m_source_file_index>  (1) 
35

>  <i_f3d_flags>  (1) 
0

>  <num_sample>  (1) 
100

>  <b_lp_Chiralities_Consistent>  (1) 
1

>  <r_epik_Charging_Adjusted_Penalty>  (1) 
0

>  <r_epik_Ionization_Penalty>  (1) 
0.00017143064018834461

>  <r_epik_Ionization_Penalty_Charging>  (1) 
0

>  <r_epik_Ionization_Penalty_Neutral>  (1) 
0.00017143064018834461

>  <r_epik_State_Penalty>  (1) 
-0

>  <r_glide_ring_energy>  (1) 
1.236193072622225

>  <r_i_docking_score>  (1) 
-4.2115917265132659

>  <r_i_glide_ecoul>  (1) 
-1.2029694189760223

>  <r_i_glide_eff_state_penalty>  (1) 
-0

>  <r_i_glide_einternal>  (1) 
10.955276433446487

>  <r_i_glide_emodel>  (1) 
-30.649598260136671

>  <r_i_glide_emodel_strain>  (1) 
0

>  <r_i_glide_energy>  (1) 
-28.280555845459787

>  <r_i_glide_erotb>  (1) 
0.74388536090720081

>  <r_i_glide_esite>  (1) 
0

>  <r_i_glide_evdw>  (1) 
-27.077586426483766

>  <r_i_glide_gscore>  (1) 
-4.2115917265132659

>  <r_i_glide_gscore_strain>  (1) 
0

>  <r_i_glide_hbond>  (1) 
0

>  <r_i_glide_ligand_efficiency>  (1) 
-0.16846366906053065

>  <r_i_glide_ligand_efficiency_ln>  (1) 
-0.99827345040306736

>  <r_i_glide_ligand_efficiency_sa>  (1) 
-0.49259075657741358

>  <r_i_glide_lipo>  (1) 
-1.7596040064298426

>  <r_i_glide_metal>  (1) 
-0

>  <r_i_glide_rewards>  (1) 
-1.6615483468200314

>  <r_lp_Energy>  (1) 
20.281278999999998

>  <r_lp_tautomer_probability>  (1) 
1

>  <s_epik_cmdline>  (1) 
J2VwaWtfcHl0aG9uJywgJy1waHQnLCAnMS4wJywgJy1waCcsICc3LjQnLCAnLXRuJywgJzgnLCAnLW1hJywgJzUwMCcsICctaW1hZScsICc8aW5maWxlLm1hZT4nLCAnLW9tYWUnLCAnPG91dGZpbGUubWFlPic=

>  <s_epik_input>  (1) 
W0NIMl0xW0NIMl1bQ0gyXU9bQ0BIXTFbQ0BIXShbQ0gzXSlDKD1PKVtOSF1bQ0gyXWMyW2NIXWMoQ2wpW2NIXWMobjIpLWMzYyhbQ0gzXSlbY0hdW2NIXVtjSF1bY0hdMw==

>  <s_glide_docking_method>  (1) 
confgen

>  <s_i_glide_gridfile>  (1) 
gpcr_drd2_6luq_protein_autoprepared_prepared

>  <s_lp_Force_Field>  (1) 
S-OPLS

>  <s_lp_Variant>  (1) 
DiffSBDD_34-2

>  <s_m_source_file>  (1) 
generated_generic_title2_ligand_DiffSBDD_2026-06-23_prepared.sdf

>  <GenAI_Model>  (1) 
DiffSBDD

>  <Protein>  (1) 
generic_title2

$$$$
DiffSBDD_61
     RDKit          3D

  0  0  0  0  0  0  0  0  0  0999 V3000
M  V30 BEGIN CTAB
M  V30 COUNTS 46 47 0 0 1
M  V30 BEGIN ATOM
M  V30 1 C 9.326272 6.214530 -7.514141 0
M  V30 2 O 8.226175 7.729043 -12.385022 0 CHG=-1
M  V30 3 C 8.196910 3.199647 -18.042714 0
M  V30 4 O 9.375380 6.529253 -10.378347 0
M  V30 5 N 10.926010 8.066901 -7.040415 0 CFG=1 CHG=1
M  V30 6 O 8.848336 2.192305 -18.390301 0 CHG=-1
M  V30 7 C 5.983640 6.648328 -14.777368 0
M  V30 8 C 10.626277 6.910169 -7.924661 0 CFG=2
M  V30 9 P 10.440772 7.624693 -9.643908 0
M  V30 10 F 7.596314 3.438352 -13.982988 0
M  V30 11 C 12.539003 9.590257 -6.104260 0
M  V30 12 N 8.036947 3.426854 -16.713126 0
M  V30 13 O 9.775483 5.740172 -12.785130 0
M  V30 14 O 9.775382 8.917934 -9.412770 0 CHG=-1
M  V30 15 C 6.850530 5.660684 -16.834752 0
M  V30 16 O 7.455140 5.327447 -11.800390 0
M  V30 17 F 10.975416 9.853018 -4.409815 0
M  V30 18 P 8.755628 6.411982 -11.955404 0
M  V30 19 C 7.337239 4.541019 -16.093241 0
M  V30 20 C 7.140068 4.498050 -14.695371 0
M  V30 21 C 10.967066 7.794084 -5.590701 0
M  V30 22 C 12.175416 8.789876 -7.356913 0
M  V30 23 C 11.775104 8.937196 -4.954869 0 CFG=1
M  V30 24 C 6.464921 5.549720 -14.038929 0
M  V30 25 O 7.699026 3.969517 -18.886919 0
M  V30 26 C 6.258859 5.501107 -12.532137 0
M  V30 27 C 6.175409 6.703380 -16.168886 0
M  V30 28 O 11.782396 7.590226 -10.270323 0
M  V30 29 H 9.373437 5.815919 -6.502919 0
M  V30 30 H 8.501627 6.919336 -7.555394 0
M  V30 31 H 9.090013 5.378817 -8.173082 0
M  V30 32 H 5.469665 7.453781 -14.272437 0
M  V30 33 H 11.431957 6.184364 -7.887628 0
M  V30 34 H 13.616309 9.599400 -5.932686 0
M  V30 35 H 12.220311 10.627515 -6.222848 0
M  V30 36 H 8.429631 2.744706 -16.083865 0
M  V30 37 H 6.989737 5.736899 -17.891626 0
M  V30 38 H 9.960706 7.706905 -5.185034 0
M  V30 39 H 11.478611 6.844918 -5.421322 0
M  V30 40 H 12.966807 8.073898 -7.585092 0
M  V30 41 H 12.065985 9.441483 -8.223913 0
M  V30 42 H 12.434474 8.577580 -4.163551 0
M  V30 43 H 5.738892 6.396469 -12.188724 0
M  V30 44 H 5.591620 4.667440 -12.307083 0
M  V30 45 H 5.809020 7.551044 -16.729041 0
M  V30 46 H 10.181940 8.728293 -7.236549 0
M  V30 END ATOM
M  V30 BEGIN BOND
M  V30 1 1 6 3
M  V30 2 1 8 1
M  V30 3 1 8 5
M  V30 4 1 9 4
M  V30 5 1 9 8
M  V30 6 1 12 3
M  V30 7 1 14 9
M  V30 8 1 18 2
M  V30 9 1 18 4
M  V30 10 2 18 13
M  V30 11 1 18 16
M  V30 12 1 19 12
M  V30 13 2 19 15
M  V30 14 1 20 10
M  V30 15 1 20 19
M  V30 16 1 21 5
M  V30 17 1 22 5
M  V30 18 1 22 11
M  V30 19 1 23 11
M  V30 20 1 23 17
M  V30 21 1 23 21
M  V30 22 1 24 7
M  V30 23 2 24 20
M  V30 24 2 25 3
M  V30 25 1 26 16
M  V30 26 1 26 24
M  V30 27 2 27 7
M  V30 28 1 27 15
M  V30 29 2 28 9
M  V30 30 1 29 1
M  V30 31 1 30 1
M  V30 32 1 31 1
M  V30 33 1 32 7
M  V30 34 1 8 33 CFG=3
M  V30 35 1 34 11
M  V30 36 1 35 11
M  V30 37 1 36 12
M  V30 38 1 37 15
M  V30 39 1 38 21
M  V30 40 1 39 21
M  V30 41 1 40 22
M  V30 42 1 41 22
M  V30 43 1 23 42 CFG=1
M  V30 44 1 43 26
M  V30 45 1 44 26
M  V30 46 1 45 27
M  V30 47 1 5 46 CFG=1
M  V30 END BOND
M  V30 END CTAB
M  END
>  <i_epik_Tot_Q>  (1) 
-2

>  <i_epik_Tot_abs_Q>  (1) 
4

>  <i_i_glide_confnum>  (1) 
72

>  <i_i_glide_lignum>  (1) 
97

>  <i_i_glide_posenum>  (1) 
52

>  <i_i_glide_rotatable_bonds>  (1) 
9

>  <i_lp_mmshare_version>  (1) 
72125

>  <i_m_source_file_index>  (1) 
62

>  <i_f3d_flags>  (1) 
0

>  <num_sample>  (1) 
100

>  <b_lp_Chiralities_Consistent>  (1) 
1

>  <r_epik_Charging_Adjusted_Penalty>  (1) 
0.22521151081801519

>  <r_epik_Ionization_Penalty>  (1) 
0.079461215956128484

>  <r_epik_Ionization_Penalty_Charging>  (1) 
0.079461215147622277

>  <r_epik_Ionization_Penalty_Neutral>  (1) 
8.0850620194651714e-10

>  <r_epik_State_Penalty>  (1) 
0.14575029567039291

>  <r_glide_ring_energy>  (1) 
0

>  <r_i_docking_score>  (1) 
-4.2002080799865533

>  <r_i_glide_ecoul>  (1) 
1.5452929469286376

>  <r_i_glide_eff_state_penalty>  (1) 
0.14575029567039291

>  <r_i_glide_einternal>  (1) 
3.6462337134794449

>  <r_i_glide_emodel>  (1) 
-42.507602826288363

>  <r_i_glide_emodel_strain>  (1) 
0.25049583853386537

>  <r_i_glide_energy>  (1) 
-33.306188841990874

>  <r_i_glide_erotb>  (1) 
0.71514179105455389

>  <r_i_glide_esite>  (1) 
-0.063715104671816389

>  <r_i_glide_evdw>  (1) 
-34.851481788919514

>  <r_i_glide_gscore>  (1) 
-4.345958375656946

>  <r_i_glide_gscore_strain>  (1) 
0

>  <r_i_glide_hbond>  (1) 
0

>  <r_i_glide_ligand_efficiency>  (1) 
-0.1500074314280912

>  <r_i_glide_ligand_efficiency_ln>  (1) 
-0.96953134832886445

>  <r_i_glide_ligand_efficiency_sa>  (1) 
-0.45551091197393645

>  <r_i_glide_lipo>  (1) 
-2.0267866516631474

>  <r_i_glide_metal>  (1) 
-0

>  <r_i_glide_rewards>  (1) 
-1.459818262969856

>  <r_lp_Energy>  (1) 
5.9120159999999995

>  <s_epik_cmdline>  (1) 
J2VwaWtfcHl0aG9uJywgJy1waHQnLCAnMS4wJywgJy1waCcsICc3LjQnLCAnLXRuJywgJzgnLCAnLW1hJywgJzUwMCcsICctaW1hZScsICc8aW5maWxlLm1hZT4nLCAnLW9tYWUnLCAnPG91dGZpbGUubWFlPic=

>  <s_epik_input>  (1) 
W0NIMl0xW0NIMl1bQ0BASF0oRilbQ0gyXU4xW0NAQEhdKFtDSDNdKVtQQF0oPU8pKFtPSF0pT1tQQEBdKD1PKShbT0hdKU9bQ0gyXWMoYzJGKVtjSF1bY0hdW2NIXWMyW05IXUMoPU8pW09IXQ==

>  <s_glide_docking_method>  (1) 
confgen

>  <s_i_glide_gridfile>  (1) 
gpcr_drd2_6luq_protein_autoprepared_prepared

>  <s_lp_Force_Field>  (1) 
S-OPLS

>  <s_lp_Variant>  (1) 
DiffSBDD_61-2

>  <s_m_source_file>  (1) 
generated_generic_title2_ligand_DiffSBDD_2026-06-23_prepared.sdf

>  <GenAI_Model>  (1) 
DiffSBDD

>  <Protein>  (1) 
generic_title2

$$$$
DiffSBDD_94
     RDKit          3D

  0  0  0  0  0  0  0  0  0  0999 V3000
M  V30 BEGIN CTAB
M  V30 COUNTS 65 69 0 0 1
M  V30 BEGIN ATOM
M  V30 1 C 7.960242 7.844218 -12.631742 0
M  V30 2 C 9.824465 5.525462 -9.431194 0
M  V30 3 O 13.462489 9.590377 -5.240559 0
M  V30 4 C 8.673828 6.917165 -11.649546 0
M  V30 5 C 12.176273 9.216514 -5.654523 0 CFG=1
M  V30 6 N 6.472705 6.787710 -19.958178 0
M  V30 7 C 5.884485 5.737267 -20.586352 0
M  V30 8 C 6.954298 7.122570 -13.533842 0 CFG=2
M  V30 9 C 7.031370 5.379766 -18.170711 0
M  V30 10 C 11.576757 8.201613 -4.718011 0 CFG=1
M  V30 11 Cl 5.107547 7.590166 -11.585025 0
M  V30 12 C 11.101793 9.647329 -4.700057 0
M  V30 13 C 7.711035 5.274305 -16.794797 0 CFG=2
M  V30 14 C 7.950497 5.030041 -8.830479 0
M  V30 15 C 8.635240 4.911109 -10.192703 0 CFG=1
M  V30 16 C 5.982705 6.388425 -12.596435 0 CFG=2
M  V30 17 C 10.582191 6.972001 -6.808293 0 CFG=1
M  V30 18 C 8.042243 3.829115 -16.368571 0
M  V30 19 C 5.840846 4.448756 -20.034234 0
M  V30 20 O 6.086466 4.386392 -11.277521 0
M  V30 21 N 7.049920 6.607762 -18.752633 0
M  V30 22 N 8.878275 6.101887 -8.511612 0 CFG=1 CHG=1
M  V30 23 C 10.788150 7.029150 -5.274171 0
M  V30 24 N 7.918801 5.731891 -11.194750 0
M  V30 25 F 12.314289 7.843316 -3.599206 0
M  V30 26 C 9.270551 6.206585 -7.101674 0
M  V30 27 C 6.433742 4.259813 -18.784305 0
M  V30 28 C 11.942048 9.177448 -7.153595 0
M  V30 29 O 9.891719 8.720736 -8.329359 0
M  V30 30 C 6.672277 5.408347 -11.635598 0
M  V30 31 C 6.884083 6.014343 -15.711274 0
M  V30 32 C 10.719623 8.332676 -7.509404 0
M  V30 33 N 7.650196 6.246907 -14.484855 0
M  V30 34 H 8.697084 8.390028 -13.184759 0
M  V30 35 H 7.454484 8.623317 -12.060808 0
M  V30 36 H 10.462498 6.265863 -9.913199 0
M  V30 37 H 10.411090 4.777101 -8.894774 0
M  V30 38 H 13.582866 9.273619 -4.355496 0
M  V30 39 H 8.959564 7.544967 -10.806104 0
M  V30 40 H 9.593689 6.561941 -12.117093 0
M  V30 41 H 5.438919 5.938221 -21.549849 0
M  V30 42 H 6.418174 7.875436 -14.110273 0
M  V30 43 H 11.371330 10.242412 -3.829970 0
M  V30 44 H 10.175429 9.935031 -5.183863 0
M  V30 45 H 8.665059 5.790458 -16.908719 0
M  V30 46 H 8.005203 4.152208 -8.183751 0
M  V30 47 H 6.975227 5.470523 -8.854671 0
M  V30 48 H 8.834087 3.894278 -10.524120 0
M  V30 49 H 5.237554 5.848575 -13.181033 0
M  V30 50 H 11.404571 6.384057 -7.218768 0
M  V30 51 H 8.634265 3.316072 -17.128180 0
M  V30 52 H 8.625971 3.818370 -15.448914 0
M  V30 53 H 7.142591 3.240382 -16.185145 0
M  V30 54 H 5.365672 3.632362 -20.559279 0
M  V30 55 H 9.820896 7.010059 -4.785049 0
M  V30 56 H 11.294282 6.113950 -4.971952 0
M  V30 57 H 9.422588 5.190144 -6.784499 0
M  V30 58 H 8.427334 6.609791 -6.540150 0
M  V30 59 H 6.429050 3.291102 -18.310829 0
M  V30 60 H 11.775490 10.187826 -7.521421 0
M  V30 61 H 12.824217 8.774643 -7.651839 0
M  V30 62 H 5.967947 5.469429 -15.492425 0
M  V30 63 H 6.584685 6.982916 -16.109440 0
M  V30 64 H 7.935462 5.380040 -14.054260 0
M  V30 65 H 8.469072 6.969151 -8.863365 0
M  V30 END ATOM
M  V30 BEGIN BOND
M  V30 1 1 4 1
M  V30 2 1 5 3 CFG=3
M  V30 3 1 7 6
M  V30 4 1 8 1
M  V30 5 1 10 5
M  V30 6 1 12 5
M  V30 7 1 12 10
M  V30 8 1 13 9
M  V30 9 1 15 2
M  V30 10 1 15 14
M  V30 11 1 16 8
M  V30 12 1 16 11
M  V30 13 1 18 13
M  V30 14 2 19 7
M  V30 15 2 21 6
M  V30 16 1 21 9
M  V30 17 1 22 2
M  V30 18 1 22 14
M  V30 19 1 23 10
M  V30 20 1 23 17
M  V30 21 1 24 4
M  V30 22 1 24 15
M  V30 23 1 10 25 CFG=1
M  V30 24 1 26 17
M  V30 25 1 26 22
M  V30 26 2 27 9
M  V30 27 1 27 19
M  V30 28 1 28 5
M  V30 29 1 30 16
M  V30 30 2 30 20
M  V30 31 1 30 24
M  V30 32 1 31 13
M  V30 33 1 32 17
M  V30 34 1 32 28
M  V30 35 2 32 29
M  V30 36 1 33 8
M  V30 37 1 33 31
M  V30 38 1 34 1
M  V30 39 1 35 1
M  V30 40 1 36 2
M  V30 41 1 37 2
M  V30 42 1 38 3
M  V30 43 1 39 4
M  V30 44 1 40 4
M  V30 45 1 41 7
M  V30 46 1 8 42 CFG=3
M  V30 47 1 43 12
M  V30 48 1 44 12
M  V30 49 1 13 45 CFG=3
M  V30 50 1 46 14
M  V30 51 1 47 14
M  V30 52 1 15 48 CFG=3
M  V30 53 1 16 49 CFG=3
M  V30 54 1 17 50 CFG=3
M  V30 55 1 51 18
M  V30 56 1 52 18
M  V30 57 1 53 18
M  V30 58 1 54 19
M  V30 59 1 55 23
M  V30 60 1 56 23
M  V30 61 1 57 26
M  V30 62 1 58 26
M  V30 63 1 59 27
M  V30 64 1 60 28
M  V30 65 1 61 28
M  V30 66 1 62 31
M  V30 67 1 63 31
M  V30 68 1 64 33
M  V30 69 1 22 65 CFG=3
M  V30 END BOND
M  V30 END CTAB
M  END
>  <i_epik_Tot_Q>  (1) 
1

>  <i_epik_Tot_abs_Q>  (1) 
1

>  <i_i_glide_confnum>  (1) 
209

>  <i_i_glide_lignum>  (1) 
181

>  <i_i_glide_posenum>  (1) 
336

>  <i_i_glide_rotatable_bonds>  (1) 
8

>  <i_lp_mmshare_version>  (1) 
72125

>  <i_m_source_file_index>  (1) 
95

>  <i_f3d_flags>  (1) 
0

>  <num_sample>  (1) 
100

>  <b_lp_Chiralities_Consistent>  (1) 
1

>  <r_epik_Charging_Adjusted_Penalty>  (1) 
1.4532026091556733

>  <r_epik_Ionization_Penalty>  (1) 
1.1658176113502041

>  <r_epik_Ionization_Penalty_Charging>  (1) 
0.22723193656236854

>  <r_epik_Ionization_Penalty_Neutral>  (1) 
0.93858567478783561

>  <r_epik_State_Penalty>  (1) 
1.2259706725933048

>  <r_glide_ring_energy>  (1) 
1.3165782718524921

>  <r_i_docking_score>  (1) 
-4.1932131367374739

>  <r_i_glide_ecoul>  (1) 
-4.1527176110819157

>  <r_i_glide_eff_state_penalty>  (1) 
1.2259706725933048

>  <r_i_glide_einternal>  (1) 
6.0154070826891868

>  <r_i_glide_emodel>  (1) 
-40.066905644176316

>  <r_i_glide_emodel_strain>  (1) 
1.9170193989128848

>  <r_i_glide_energy>  (1) 
-30.558830125373852

>  <r_i_glide_erotb>  (1) 
0.52602338862990483

>  <r_i_glide_esite>  (1) 
-0.20728585800073429

>  <r_i_glide_evdw>  (1) 
-26.406112514291937

>  <r_i_glide_gscore>  (1) 
-5.4191838093307787

>  <r_i_glide_gscore_strain>  (1) 
0

>  <r_i_glide_hbond>  (1) 
-0.18696589620560919

>  <r_i_glide_ligand_efficiency>  (1) 
-0.12706706474962043

>  <r_i_glide_ligand_efficiency_ln>  (1) 
-0.93254889031475574

>  <r_i_glide_ligand_efficiency_sa>  (1) 
-0.40757197239621007

>  <r_i_glide_lipo>  (1) 
-2.1031423661584978

>  <r_i_glide_metal>  (1) 
-0

>  <r_i_glide_rewards>  (1) 
-1.5045998102189579

>  <r_lp_Energy>  (1) 
64.001239999999996

>  <s_epik_cmdline>  (1) 
J2VwaWtfcHl0aG9uJywgJy1waHQnLCAnMS4wJywgJy1waCcsICc3LjQnLCAnLXRuJywgJzgnLCAnLW1hJywgJzUwMCcsICctaW1hZScsICc8aW5maWxlLm1hZT4nLCAnLW9tYWUnLCAnPG91dGZpbGUubWFlPic=

>  <s_epik_input>  (1) 
W2NIXTFbY0hdW2NIXW5uYzFbQ0BIXShbQ0gzXSlbQ0gyXVtOSF1bQ0BASF0yW0NIMl1bQ0gyXU4oQyg9TylbQ0BIXTJDbClbQ0hdM1tDSDJdTihbQ0gyXTMpW0NIMl1bQ0BASF0oQyg9TylbQ0gyXTQpW0NIMl1bQ0BdKEYpKFtDSDJdNSlbQ0BAXTQ1W09IXQ==

>  <s_glide_docking_method>  (1) 
confgen

>  <s_i_glide_gridfile>  (1) 
gpcr_drd2_6luq_protein_autoprepared_prepared

>  <s_lp_Force_Field>  (1) 
S-OPLS

>  <s_lp_Variant>  (1) 
DiffSBDD_94-4

>  <s_m_source_file>  (1) 
generated_generic_title2_ligand_DiffSBDD_2026-06-23_prepared.sdf

>  <GenAI_Model>  (1) 
DiffSBDD

>  <Protein>  (1) 
generic_title2

$$$$
DiffSBDD_77
     RDKit          3D

  0  0  0  0  0  0  0  0  0  0999 V3000
M  V30 BEGIN CTAB
M  V30 COUNTS 64 67 0 0 1
M  V30 BEGIN ATOM
M  V30 1 N 10.748231 7.662750 -7.140456 0
M  V30 2 C 9.569106 4.790216 -15.637610 0
M  V30 3 C 5.671077 7.587966 -18.888225 0
M  V30 4 C 7.984328 6.138099 -12.044277 0
M  V30 5 C 8.204142 4.994902 -9.628524 0
M  V30 6 C 4.779912 6.511725 -16.780498 0
M  V30 7 C 12.384856 8.900875 -9.546910 0
M  V30 8 N 6.685124 5.500362 -12.309577 0
M  V30 9 C 7.765537 3.943123 -13.964185 0 CFG=1
M  V30 10 C 10.564525 7.325135 -8.480016 0
M  V30 11 C 6.366962 4.592114 -19.186649 0
M  V30 12 C 5.536256 6.036472 -11.574064 0
M  V30 13 C 6.510328 4.505242 -13.221829 0
M  V30 14 N 9.775410 6.369160 -10.263886 0
M  V30 15 C 7.478646 2.441101 -14.221087 0 CFG=2
M  V30 16 C 8.871729 5.416606 -11.012536 0 CFG=2
M  V30 17 C 9.673293 6.432747 -8.945632 0
M  V30 18 C 10.758720 7.245872 -10.709830 0
M  V30 19 C 6.048406 6.891773 -17.565997 0
M  V30 20 C 8.078774 4.780497 -15.255794 0 CFG=2
M  V30 21 C 8.245966 1.393521 -14.998724 0
M  V30 22 C 8.714566 5.590224 -8.562028 0
M  V30 23 C 11.291200 7.874579 -9.585890 0
M  V30 24 O 5.398149 4.036214 -13.468427 0
M  V30 25 C 7.140398 4.400738 -16.420496 0 CFG=1
M  V30 26 S 7.234959 5.516688 -17.879276 0 CHG=1
M  V30 27 C 7.242959 2.909625 -16.801460 0
M  V30 28 C 7.023682 2.008591 -15.604185 0 CFG=2
M  V30 29 H 11.298552 8.472270 -6.898532 0
M  V30 30 H 10.072197 7.369046 -6.449502 0
M  V30 31 H 9.886881 3.855275 -16.090406 0
M  V30 32 H 9.790165 5.581679 -16.354183 0
M  V30 33 H 10.193216 4.973046 -14.763443 0
M  V30 34 H 5.238154 8.569942 -18.706284 0
M  V30 35 H 6.534600 7.726080 -19.541529 0
M  V30 36 H 4.929594 7.014851 -19.445456 0
M  V30 37 H 7.774985 7.141062 -11.666118 0
M  V30 38 H 8.550196 6.319233 -12.956264 0
M  V30 39 H 7.402053 4.272831 -9.592593 0
M  V30 40 H 4.055091 7.326852 -16.799254 0
M  V30 41 H 4.288478 5.630336 -17.185044 0
M  V30 42 H 4.997481 6.328756 -15.728131 0
M  V30 43 H 12.981875 8.790337 -8.641673 0
M  V30 44 H 13.046192 8.789813 -10.406035 0
M  V30 45 H 11.955324 9.902167 -9.573396 0
M  V30 46 H 8.624706 3.962377 -13.302145 0
M  V30 47 H 6.262873 5.198745 -20.085417 0
M  V30 48 H 6.933444 3.705515 -19.471184 0
M  V30 49 H 5.375009 4.284559 -18.859279 0
M  V30 50 H 4.775500 5.277867 -11.395380 0
M  V30 51 H 5.811939 6.390221 -10.586120 0
M  V30 52 H 5.085177 6.867446 -12.116577 0
M  V30 53 H 6.964313 1.977817 -13.378542 0
M  V30 54 H 9.460225 4.594358 -11.417599 0
M  V30 55 H 10.988959 7.337339 -11.760624 0
M  V30 56 H 6.575415 7.609043 -16.941466 0
M  V30 57 H 7.851456 5.822580 -15.026197 0
M  V30 58 H 9.129710 1.590227 -15.585033 0
M  V30 59 H 8.161742 0.364609 -14.653555 0
M  V30 60 H 8.416301 5.454661 -7.533502 0
M  V30 61 H 6.175410 4.543341 -15.985028 0
M  V30 62 H 8.209800 2.702104 -17.260230 0
M  V30 63 H 6.504883 2.618331 -17.544337 0
M  V30 64 H 6.152252 1.362828 -15.663001 0
M  V30 END ATOM
M  V30 BEGIN BOND
M  V30 1 1 8 4
M  V30 2 1 10 1
M  V30 3 1 12 8
M  V30 4 1 13 8
M  V30 5 1 13 9
M  V30 6 1 15 9
M  V30 7 1 16 4
M  V30 8 1 16 5
M  V30 9 1 16 14
M  V30 10 2 17 10
M  V30 11 1 17 14
M  V30 12 1 18 14
M  V30 13 1 19 3
M  V30 14 1 19 6
M  V30 15 1 20 2
M  V30 16 1 20 9
M  V30 17 1 21 15
M  V30 18 2 22 5
M  V30 19 1 22 17
M  V30 20 1 23 7
M  V30 21 1 23 10
M  V30 22 2 23 18
M  V30 23 2 24 13
M  V30 24 1 25 20
M  V30 25 1 26 11 CFG=3
M  V30 26 1 26 19
M  V30 27 1 26 25
M  V30 28 1 27 25
M  V30 29 1 28 15
M  V30 30 1 28 21
M  V30 31 1 28 27
M  V30 32 1 29 1
M  V30 33 1 30 1
M  V30 34 1 31 2
M  V30 35 1 32 2
M  V30 36 1 33 2
M  V30 37 1 34 3
M  V30 38 1 35 3
M  V30 39 1 36 3
M  V30 40 1 37 4
M  V30 41 1 38 4
M  V30 42 1 39 5
M  V30 43 1 40 6
M  V30 44 1 41 6
M  V30 45 1 42 6
M  V30 46 1 43 7
M  V30 47 1 44 7
M  V30 48 1 45 7
M  V30 49 1 9 46 CFG=1
M  V30 50 1 47 11
M  V30 51 1 48 11
M  V30 52 1 49 11
M  V30 53 1 50 12
M  V30 54 1 51 12
M  V30 55 1 52 12
M  V30 56 1 15 53 CFG=1
M  V30 57 1 16 54 CFG=3
M  V30 58 1 55 18
M  V30 59 1 56 19
M  V30 60 1 20 57 CFG=1
M  V30 61 1 58 21
M  V30 62 1 59 21
M  V30 63 1 60 22
M  V30 64 1 25 61 CFG=1
M  V30 65 1 62 27
M  V30 66 1 63 27
M  V30 67 1 28 64 CFG=1
M  V30 END BOND
M  V30 END CTAB
M  END
>  <i_epik_Tot_Q>  (1) 
1

>  <i_epik_Tot_abs_Q>  (1) 
1

>  <i_i_glide_confnum>  (1) 
29

>  <i_i_glide_lignum>  (1) 
128

>  <i_i_glide_posenum>  (1) 
283

>  <i_i_glide_rotatable_bonds>  (1) 
6

>  <i_lp_mmshare_version>  (1) 
72125

>  <i_m_source_file_index>  (1) 
78

>  <i_f3d_flags>  (1) 
0

>  <num_sample>  (1) 
100

>  <b_lp_Chiralities_Consistent>  (1) 
1

>  <r_epik_Charging_Adjusted_Penalty>  (1) 
0

>  <r_epik_Ionization_Penalty>  (1) 
0.00035710652682445374

>  <r_epik_Ionization_Penalty_Charging>  (1) 
0

>  <r_epik_Ionization_Penalty_Neutral>  (1) 
0.00035710652682445374

>  <r_epik_State_Penalty>  (1) 
-0

>  <r_glide_ring_energy>  (1) 
1.6098596985396372

>  <r_i_docking_score>  (1) 
-4.1886471654990824

>  <r_i_glide_ecoul>  (1) 
-2.0573013208593802

>  <r_i_glide_eff_state_penalty>  (1) 
-0

>  <r_i_glide_einternal>  (1) 
1.0604129680480945

>  <r_i_glide_emodel>  (1) 
-35.974699554851355

>  <r_i_glide_emodel_strain>  (1) 
2.0799921574487144

>  <r_i_glide_energy>  (1) 
-31.146003976716919

>  <r_i_glide_erotb>  (1) 
0.60532363573914161

>  <r_i_glide_esite>  (1) 
-0.087264476444033151

>  <r_i_glide_evdw>  (1) 
-29.088702655857539

>  <r_i_glide_gscore>  (1) 
-4.1886471654990824

>  <r_i_glide_gscore_strain>  (1) 
0

>  <r_i_glide_hbond>  (1) 
0

>  <r_i_glide_ligand_efficiency>  (1) 
-0.14959454162496724

>  <r_i_glide_ligand_efficiency_ln>  (1) 
-0.96686274982195708

>  <r_i_glide_ligand_efficiency_sa>  (1) 
-0.45425713535117029

>  <r_i_glide_lipo>  (1) 
-1.7404498210399253

>  <r_i_glide_metal>  (1) 
-0

>  <r_i_glide_rewards>  (1) 
-1.2032261728324822

>  <r_lp_Energy>  (1) 
24.865627999999997

>  <r_lp_tautomer_probability>  (1) 
1

>  <s_epik_cmdline>  (1) 
J2VwaWtfcHl0aG9uJywgJy1waHQnLCAnMS4wJywgJy1waCcsICc3LjQnLCAnLXRuJywgJzgnLCAnLW1hJywgJzUwMCcsICctaW1hZScsICc8aW5maWxlLm1hZT4nLCAnLW9tYWUnLCAnPG91dGZpbGUubWFlPic=

>  <s_epik_input>  (1) 
W0NIM11jKFtjSF0xKWMoW05IMl0pYyhuMTIpW0NIXT1bQ0hdW0NASF0yW0NIMl1OKFtDSDNdKUMoPU8pW0NAQEhdM1tDQEBIXShbQ0gzXSlbQ0BASF0oW1MrXShbQ0gzXSlbQ0hdKFtDSDNdKVtDSDNdKVtDSDJdW0NASF0oW0NIXTM0KVtDSDJdNA==

>  <s_glide_docking_method>  (1) 
confgen

>  <s_i_glide_gridfile>  (1) 
gpcr_drd2_6luq_protein_autoprepared_prepared

>  <s_lp_Force_Field>  (1) 
S-OPLS

>  <s_lp_Variant>  (1) 
DiffSBDD_77-1

>  <s_m_source_file>  (1) 
generated_generic_title2_ligand_DiffSBDD_2026-06-23_prepared.sdf

>  <GenAI_Model>  (1) 
DiffSBDD

>  <Protein>  (1) 
generic_title2

$$$$
DiffSBDD_17
     RDKit          3D

  0  0  0  0  0  0  0  0  0  0999 V3000
M  V30 BEGIN CTAB
M  V30 COUNTS 42 43 0 0 1
M  V30 BEGIN ATOM
M  V30 1 Cl 8.493374 5.190662 -14.487745 0
M  V30 2 C 9.144446 5.469504 -11.890219 0
M  V30 3 C 8.215706 4.665693 -12.800955 0 CFG=2
M  V30 4 C 12.853378 9.190575 -3.815788 0
M  V30 5 C 6.086227 3.426584 -12.754784 0
M  V30 6 O 9.061913 4.964880 -10.560527 0
M  V30 7 C 9.127811 6.478073 -7.200275 0
M  V30 8 Cl 11.568479 9.152046 -8.986697 0
M  V30 9 C 7.135861 1.069919 -13.179839 0
M  V30 10 O 11.441353 8.415311 -5.635421 0
M  V30 11 O 12.537361 8.040889 -1.886359 0
M  V30 12 C 9.375325 5.821630 -9.533966 0
M  V30 13 O 8.051757 0.390267 -13.689427 0
M  V30 14 C 10.207075 8.579702 -6.300954 0
M  V30 15 C 10.224638 6.931139 -9.751763 0
M  V30 16 C 10.519143 7.811170 -8.701895 0
M  V30 17 C 7.206794 2.583512 -13.389125 0 CFG=2
M  V30 18 C 8.842936 5.590252 -8.253372 0
M  V30 19 C 8.459698 3.167393 -12.736768 0
M  V30 20 O 6.175482 0.625659 -12.514107 0 CHG=-1
M  V30 21 C 11.653432 9.477037 -4.714633 0
M  V30 22 C 6.715875 4.804898 -12.475010 0
M  V30 23 C 9.954406 7.597987 -7.423531 0
M  V30 24 N 12.575400 7.897562 -3.089539 0
M  V30 25 H 8.846318 6.518122 -11.947537 0
M  V30 26 H 10.175047 5.388900 -12.239464 0
M  V30 27 H 13.774902 9.082957 -4.385025 0
M  V30 28 H 12.975470 9.989964 -3.086222 0
M  V30 29 H 5.775414 3.000269 -11.801454 0
M  V30 30 H 5.209083 3.496441 -13.397612 0
M  V30 31 H 8.696455 6.310093 -6.224754 0
M  V30 32 H 10.128703 9.590182 -6.698728 0
M  V30 33 H 9.396712 8.464004 -5.585128 0
M  V30 34 H 10.651345 7.108158 -10.726432 0
M  V30 35 H 7.227175 2.758931 -14.464858 0
M  V30 36 H 8.197186 4.741463 -8.083167 0
M  V30 37 H 9.379520 2.858338 -13.185002 0
M  V30 38 H 8.575455 2.848317 -11.706907 0
M  V30 39 H 11.819160 10.404953 -5.263888 0
M  V30 40 H 10.777106 9.636789 -4.087019 0
M  V30 41 H 6.566367 5.060369 -11.424515 0
M  V30 42 H 6.249336 5.596404 -13.061947 0
M  V30 END ATOM
M  V30 BEGIN BOND
M  V30 1 1 3 1 CFG=3
M  V30 2 1 3 2
M  V30 3 1 6 2
M  V30 4 1 12 6
M  V30 5 2 13 9
M  V30 6 1 14 10
M  V30 7 2 15 12
M  V30 8 1 16 8
M  V30 9 1 16 15
M  V30 10 1 17 5
M  V30 11 1 17 9
M  V30 12 2 18 7
M  V30 13 1 18 12
M  V30 14 1 19 3
M  V30 15 1 19 17
M  V30 16 1 20 9
M  V30 17 1 21 4
M  V30 18 1 21 10
M  V30 19 1 22 3
M  V30 20 1 22 5
M  V30 21 1 23 7
M  V30 22 1 23 14
M  V30 23 2 23 16
M  V30 24 1 24 4
M  V30 25 2 24 11
M  V30 26 1 25 2
M  V30 27 1 26 2
M  V30 28 1 27 4
M  V30 29 1 28 4
M  V30 30 1 29 5
M  V30 31 1 30 5
M  V30 32 1 31 7
M  V30 33 1 32 14
M  V30 34 1 33 14
M  V30 35 1 34 15
M  V30 36 1 17 35 CFG=3
M  V30 37 1 36 18
M  V30 38 1 37 19
M  V30 39 1 38 19
M  V30 40 1 39 21
M  V30 41 1 40 21
M  V30 42 1 41 22
M  V30 43 1 42 22
M  V30 END BOND
M  V30 END CTAB
M  END
>  <i_epik_Tot_Q>  (1) 
-1

>  <i_epik_Tot_abs_Q>  (1) 
1

>  <i_i_glide_confnum>  (1) 
268

>  <i_i_glide_lignum>  (1) 
32

>  <i_i_glide_posenum>  (1) 
164

>  <i_i_glide_rotatable_bonds>  (1) 
9

>  <i_lp_mmshare_version>  (1) 
72125

>  <i_m_source_file_index>  (1) 
18

>  <i_f3d_flags>  (1) 
0

>  <num_sample>  (1) 
100

>  <b_lp_Chiralities_Consistent>  (1) 
1

>  <r_epik_Charging_Adjusted_Penalty>  (1) 
0.00012381605781317179

>  <r_epik_Ionization_Penalty>  (1) 
0.00012381605830283167

>  <r_epik_Ionization_Penalty_Charging>  (1) 
0.00012381605781317179

>  <r_epik_Ionization_Penalty_Neutral>  (1) 
4.8965987375008979e-13

>  <r_epik_State_Penalty>  (1) 
-0

>  <r_glide_ring_energy>  (1) 
0

>  <r_i_docking_score>  (1) 
-4.182023570418357

>  <r_i_glide_ecoul>  (1) 
1.3885521826460014

>  <r_i_glide_eff_state_penalty>  (1) 
-0

>  <r_i_glide_einternal>  (1) 
5.955330577669903

>  <r_i_glide_emodel>  (1) 
-37.004338612329398

>  <r_i_glide_emodel_strain>  (1) 
1.7947123083103023

>  <r_i_glide_energy>  (1) 
-33.532650541145941

>  <r_i_glide_erotb>  (1) 
0.96174401237487195

>  <r_i_glide_esite>  (1) 
0

>  <r_i_glide_evdw>  (1) 
-34.921202723791943

>  <r_i_glide_gscore>  (1) 
-4.182023570418357

>  <r_i_glide_gscore_strain>  (1) 
0

>  <r_i_glide_hbond>  (1) 
0

>  <r_i_glide_ligand_efficiency>  (1) 
-0.17425098210076487

>  <r_i_glide_ligand_efficiency_ln>  (1) 
-1.0009501409583517

>  <r_i_glide_ligand_efficiency_sa>  (1) 
-0.50262680812094407

>  <r_i_glide_lipo>  (1) 
-1.9257416399543277

>  <r_i_glide_metal>  (1) 
-0

>  <r_i_glide_rewards>  (1) 
-1.6802486340462046

>  <r_lp_Energy>  (1) 
24.982256

>  <r_lp_tautomer_probability>  (1) 
1

>  <s_epik_cmdline>  (1) 
J2VwaWtfcHl0aG9uJywgJy1waHQnLCAnMS4wJywgJy1waCcsICc3LjQnLCAnLXRuJywgJzgnLCAnLW1hJywgJzUwMCcsICctaW1hZScsICc8aW5maWxlLm1hZT4nLCAnLW9tYWUnLCAnPG91dGZpbGUubWFlPic=

>  <s_epik_input>  (1) 
Tz1DKFtPSF0pW0NAQEhdKFtDSDJdW0NIMl0xKVtDSDJdW0NAXTEoQ2wpW0NIMl1PYzJbY0hdYyhDbCljKFtjSF1bY0hdMilbQ0gyXU9bQ0gyXVtDSDJdTj1P

>  <s_glide_docking_method>  (1) 
confgen

>  <s_i_glide_gridfile>  (1) 
gpcr_drd2_6luq_protein_autoprepared_prepared

>  <s_lp_Force_Field>  (1) 
S-OPLS

>  <s_lp_Variant>  (1) 
DiffSBDD_17-1

>  <s_m_source_file>  (1) 
generated_generic_title2_ligand_DiffSBDD_2026-06-23_prepared.sdf

>  <GenAI_Model>  (1) 
DiffSBDD

>  <Protein>  (1) 
generic_title2

$$$$
DiffSBDD_48
     RDKit          3D

  0  0  0  0  0  0  0  0  0  0999 V3000
M  V30 BEGIN CTAB
M  V30 COUNTS 49 50 0 0 1
M  V30 BEGIN ATOM
M  V30 1 C 11.775198 9.445525 -6.383924 0
M  V30 2 S 7.947162 4.161836 -15.468889 0
M  V30 3 O 12.097995 9.990922 -5.393769 0
M  V30 4 N 5.713577 -0.152238 -18.282259 0
M  V30 5 C 10.189054 6.529055 -12.147820 0
M  V30 6 C 8.547237 5.651113 -10.579893 0
M  V30 7 O 6.577993 4.687242 -15.371230 0
M  V30 8 C 10.858027 6.349703 -5.694154 0
M  V30 9 O 10.139422 7.032950 -8.572987 0
M  V30 10 O 8.995093 5.081916 -15.933160 0
M  V30 11 N 8.331678 3.752461 -13.793904 0
M  V30 12 C 7.925112 1.283937 -14.239984 0
M  V30 13 C 10.106522 7.999145 -7.535657 0 CFG=2
M  V30 14 C 9.778661 5.589901 -13.104614 0
M  V30 15 C 4.575413 -0.575157 -18.664915 0
M  V30 16 N 8.090864 2.697340 -16.172417 0 CHG=-1
M  V30 17 C 8.744778 4.679643 -12.813785 0
M  V30 18 C 10.006213 7.593202 -9.869137 0
M  V30 19 C 11.404095 8.793599 -7.461219 0
M  V30 20 C 8.127397 4.712786 -11.539099 0
M  V30 21 C 7.795737 2.482628 -13.274250 0
M  V30 22 O 5.380976 -0.814600 -16.052724 0
M  V30 23 C 9.574901 6.564756 -10.887602 0
M  V30 24 C 6.057004 -0.276473 -16.938818 0
M  V30 25 C 7.431364 0.338173 -16.601583 0
M  V30 26 C 7.360792 1.559707 -15.642590 0 CFG=1
M  V30 27 C 9.746905 7.255363 -6.241149 0
M  V30 28 H 10.977986 7.225053 -12.384491 0
M  V30 29 H 8.071647 5.680507 -9.609633 0
M  V30 30 H 10.511960 5.815557 -4.811013 0
M  V30 31 H 11.744948 6.901104 -5.390783 0
M  V30 32 H 11.163837 5.619672 -6.443185 0
M  V30 33 H 8.973396 0.998553 -14.309519 0
M  V30 34 H 7.410976 0.425340 -13.807377 0
M  V30 35 H 9.295519 8.705534 -7.727804 0
M  V30 36 H 10.263294 5.569163 -14.065763 0
M  V30 37 H 4.280913 -0.494571 -19.714790 0
M  V30 38 H 3.869587 -1.024105 -17.957961 0
M  V30 39 H 9.256342 8.385614 -9.886789 0
M  V30 40 H 10.947392 8.048271 -10.176305 0
M  V30 41 H 12.017621 8.799486 -8.348167 0
M  V30 42 H 7.331115 4.026396 -11.298763 0
M  V30 43 H 6.749821 2.624111 -12.994041 0
M  V30 44 H 8.348872 2.200548 -12.382759 0
M  V30 45 H 8.047239 -0.447502 -16.162517 0
M  V30 46 H 7.936538 0.610751 -17.531315 0
M  V30 47 H 6.313111 1.826109 -15.507011 0
M  V30 48 H 9.484092 7.990107 -5.489618 0
M  V30 49 H 8.841565 6.669643 -6.408014 0
M  V30 END ATOM
M  V30 BEGIN BOND
M  V30 1 2 3 1
M  V30 2 2 7 2
M  V30 3 2 10 2
M  V30 4 1 11 2
M  V30 5 1 13 9
M  V30 6 2 14 5
M  V30 7 2 15 4
M  V30 8 1 16 2
M  V30 9 1 17 11
M  V30 10 1 17 14
M  V30 11 1 18 9
M  V30 12 2 19 1
M  V30 13 1 19 13
M  V30 14 1 20 6
M  V30 15 2 20 17
M  V30 16 1 21 11
M  V30 17 1 21 12
M  V30 18 1 23 5
M  V30 19 2 23 6
M  V30 20 1 23 18
M  V30 21 1 24 4
M  V30 22 2 24 22
M  V30 23 1 25 24
M  V30 24 1 26 12
M  V30 25 1 26 16
M  V30 26 1 26 25
M  V30 27 1 27 8
M  V30 28 1 27 13
M  V30 29 1 28 5
M  V30 30 1 29 6
M  V30 31 1 30 8
M  V30 32 1 31 8
M  V30 33 1 32 8
M  V30 34 1 33 12
M  V30 35 1 34 12
M  V30 36 1 13 35 CFG=3
M  V30 37 1 36 14
M  V30 38 1 37 15
M  V30 39 1 38 15
M  V30 40 1 39 18
M  V30 41 1 40 18
M  V30 42 1 41 19
M  V30 43 1 42 20
M  V30 44 1 43 21
M  V30 45 1 44 21
M  V30 46 1 45 25
M  V30 47 1 46 25
M  V30 48 1 26 47 CFG=1
M  V30 49 1 48 27
M  V30 50 1 49 27
M  V30 END BOND
M  V30 END CTAB
M  END
>  <i_epik_Tot_Q>  (1) 
-1

>  <i_epik_Tot_abs_Q>  (1) 
1

>  <i_i_glide_confnum>  (1) 
314

>  <i_i_glide_lignum>  (1) 
78

>  <i_i_glide_posenum>  (1) 
109

>  <i_i_glide_rotatable_bonds>  (1) 
9

>  <i_lp_mmshare_version>  (1) 
72125

>  <i_m_source_file_index>  (1) 
49

>  <i_f3d_flags>  (1) 
0

>  <num_sample>  (1) 
100

>  <b_lp_Chiralities_Consistent>  (1) 
1

>  <r_epik_Charging_Adjusted_Penalty>  (1) 
1.1273595753974743

>  <r_epik_Ionization_Penalty>  (1) 
0.56367978799068119

>  <r_epik_Ionization_Penalty_Charging>  (1) 
0.56367978769873717

>  <r_epik_Ionization_Penalty_Neutral>  (1) 
2.9194397843885657e-10

>  <r_epik_State_Penalty>  (1) 
0.56367978769873717

>  <r_glide_ring_energy>  (1) 
0

>  <r_i_docking_score>  (1) 
-4.1818807635452035

>  <r_i_glide_ecoul>  (1) 
-0.90674663553916657

>  <r_i_glide_eff_state_penalty>  (1) 
0.56367978769873717

>  <r_i_glide_einternal>  (1) 
6.7125562807255204

>  <r_i_glide_emodel>  (1) 
-45.586304544836636

>  <r_i_glide_emodel_strain>  (1) 
2.090077480623588

>  <r_i_glide_energy>  (1) 
-40.754676389095678

>  <r_i_glide_erotb>  (1) 
1.0141341284107193

>  <r_i_glide_esite>  (1) 
0

>  <r_i_glide_evdw>  (1) 
-39.847929753556514

>  <r_i_glide_gscore>  (1) 
-4.7455605512439405

>  <r_i_glide_gscore_strain>  (1) 
0

>  <r_i_glide_hbond>  (1) 
0

>  <r_i_glide_ligand_efficiency>  (1) 
-0.15488447272389644

>  <r_i_glide_ligand_efficiency_ln>  (1) 
-0.97347289806069404

>  <r_i_glide_ligand_efficiency_sa>  (1) 
-0.46465341817168937

>  <r_i_glide_lipo>  (1) 
-1.7377455508326733

>  <r_i_glide_metal>  (1) 
-0

>  <r_i_glide_rewards>  (1) 
-1.8935406458132849

>  <r_lp_Energy>  (1) 
50.405653999999998

>  <s_epik_Chemistry_Notes>  (1) 
This compound has an imine and may undergo hydrolysis.

>  <s_epik_cmdline>  (1) 
J2VwaWtfcHl0aG9uJywgJy1waHQnLCAnMS4wJywgJy1waCcsICc3LjQnLCAnLXRuJywgJzgnLCAnLW1hJywgJzUwMCcsICctaW1hZScsICc8aW5maWxlLm1hZT4nLCAnLW9tYWUnLCAnPG91dGZpbGUubWFlPic=

>  <s_epik_input>  (1) 
Tz1DPVtDSF1bQ0BIXShbQ0gyXVtDSDNdKU9bQ0gyXWMoW2NIXVtjSF0xKVtjSF1bY0hdYzFOKFMyKD1PKT1PKVtDSDJdW0NIMl1bQ0BASF0oW05IXTIpW0NIMl1DKD1PKU49W0NIMl0=

>  <s_glide_docking_method>  (1) 
confgen

>  <s_i_glide_gridfile>  (1) 
gpcr_drd2_6luq_protein_autoprepared_prepared

>  <s_lp_Force_Field>  (1) 
S-OPLS

>  <s_lp_Variant>  (1) 
DiffSBDD_48-2

>  <s_m_source_file>  (1) 
generated_generic_title2_ligand_DiffSBDD_2026-06-23_prepared.sdf

>  <GenAI_Model>  (1) 
DiffSBDD

>  <Protein>  (1) 
generic_title2

$$$$
DiffSBDD_2
     RDKit          3D

  0  0  0  0  0  0  0  0  0  0999 V3000
M  V30 BEGIN CTAB
M  V30 COUNTS 71 75 0 0 1
M  V30 BEGIN ATOM
M  V30 1 C 8.804999 5.993209 -11.369779 0
M  V30 2 N 7.836087 4.314443 -16.107860 0 CFG=2 CHG=1
M  V30 3 C 10.283584 4.468534 -18.024089 0
M  V30 4 C 5.071053 6.391481 -19.328875 0
M  V30 5 C 7.720774 2.479510 -20.177938 0
M  V30 6 C 10.567731 7.014034 -8.092441 0 CFG=1
M  V30 7 C 6.112096 4.415515 -20.535592 0
M  V30 8 O 5.995148 6.428488 -13.637755 0
M  V30 9 C 9.641363 6.320002 -9.080046 0
M  V30 10 C 7.897857 3.354664 -13.814097 0 CFG=2
M  V30 11 C 7.189446 5.268705 -18.386602 0
M  V30 12 C 6.648164 5.483341 -14.075123 0
M  V30 13 C 9.522963 2.115813 -17.766311 0
M  V30 14 C 10.146007 7.274157 -6.663867 0
M  V30 15 O 10.975352 6.158090 -7.014225 0
M  V30 16 O 7.607673 2.118849 -13.185130 0
M  V30 17 O 7.766741 6.354534 -18.430981 0
M  V30 18 C 10.734765 7.588428 -11.013479 0
M  V30 19 C 11.715885 8.122499 -9.993737 0
M  V30 20 C 6.494445 2.942037 -20.488733 0
M  V30 21 C 4.614041 7.073583 -18.027284 0
M  V30 22 F 12.562399 8.388769 -7.873433 0
M  V30 23 C 7.778103 4.790223 -9.520133 0
M  V30 24 C 6.959155 5.411687 -15.583864 0
M  V30 25 C 9.708044 6.606673 -10.475367 0
M  V30 26 C 9.093861 3.512475 -18.273686 0
M  V30 27 C 5.865392 5.072187 -19.154618 0 CFG=1
M  V30 28 C 7.830922 5.095001 -10.889454 0
M  V30 29 C 8.675396 5.394386 -8.620406 0
M  V30 30 C 7.753362 4.040874 -17.600638 0 CFG=1
M  V30 31 C 6.811323 4.469440 -11.835404 0
M  V30 32 N 7.109863 4.481939 -13.280392 0
M  V30 33 C 11.633348 7.859804 -8.688638 0
M  V30 34 C 8.907477 3.361004 -19.814954 0
M  V30 35 C 7.612521 3.094329 -15.300640 0
M  V30 36 H 8.851080 6.231122 -12.420472 0
M  V30 37 H 11.195938 4.073748 -18.473085 0
M  V30 38 H 10.129778 5.457768 -18.453591 0
M  V30 39 H 10.486903 4.597061 -16.960254 0
M  V30 40 H 5.653328 7.100114 -19.919586 0
M  V30 41 H 4.180522 6.179198 -19.919529 0
M  V30 42 H 7.895894 1.412944 -20.165915 0
M  V30 43 H 5.202872 4.471892 -21.134776 0
M  V30 44 H 6.856387 4.977826 -21.101286 0
M  V30 45 H 8.952801 3.585416 -13.656865 0
M  V30 46 H 10.280017 1.672003 -18.414942 0
M  V30 47 H 9.987331 2.162105 -16.784850 0
M  V30 48 H 8.688020 1.414687 -17.728903 0
M  V30 49 H 10.657875 8.034662 -6.078185 0
M  V30 50 H 9.131575 7.027720 -6.357217 0
M  V30 51 H 8.347623 1.854813 -12.653103 0
M  V30 52 H 11.299383 7.102191 -11.809445 0
M  V30 53 H 10.175658 8.403820 -11.467610 0
M  V30 54 H 12.515226 8.747921 -10.366694 0
M  V30 55 H 5.708858 2.236750 -20.722636 0
M  V30 56 H 5.457287 7.414183 -17.426159 0
M  V30 57 H 4.010447 7.953870 -18.251779 0
M  V30 58 H 4.003605 6.409864 -17.415101 0
M  V30 59 H 7.030658 4.102257 -9.152433 0
M  V30 60 H 5.973641 5.331232 -16.040646 0
M  V30 61 H 7.371844 6.380882 -15.866668 0
M  V30 62 H 5.243110 4.393756 -18.572735 0
M  V30 63 H 8.609255 5.163849 -7.569096 0
M  V30 64 H 7.005276 3.254175 -17.704053 0
M  V30 65 H 5.874313 4.997188 -11.647538 0
M  V30 66 H 6.575467 3.465127 -11.493762 0
M  V30 67 H 9.795131 2.917991 -20.268563 0
M  V30 68 H 8.828770 4.331830 -20.302123 0
M  V30 69 H 8.211471 2.253014 -15.623948 0
M  V30 70 H 6.576275 2.777426 -15.429026 0
M  V30 71 H 8.784716 4.614855 -15.931608 0
M  V30 END ATOM
M  V30 BEGIN BOND
M  V30 1 1 9 6
M  V30 2 2 12 8
M  V30 3 1 14 6
M  V30 4 1 6 15 CFG=1
M  V30 5 1 15 14
M  V30 6 1 16 10
M  V30 7 2 17 11
M  V30 8 1 19 18
M  V30 9 2 20 5
M  V30 10 1 20 7
M  V30 11 1 21 4
M  V30 12 1 24 2
M  V30 13 1 24 12
M  V30 14 1 25 1
M  V30 15 2 25 9
M  V30 16 1 25 18
M  V30 17 1 26 3
M  V30 18 1 26 13
M  V30 19 1 27 4
M  V30 20 1 27 7
M  V30 21 1 27 11
M  V30 22 2 28 1
M  V30 23 1 28 23
M  V30 24 1 29 9
M  V30 25 2 29 23
M  V30 26 1 30 2
M  V30 27 1 30 11
M  V30 28 1 30 26
M  V30 29 1 31 28
M  V30 30 1 32 10
M  V30 31 1 32 12
M  V30 32 1 32 31
M  V30 33 1 33 6
M  V30 34 2 33 19
M  V30 35 1 33 22
M  V30 36 1 34 5
M  V30 37 1 34 26
M  V30 38 1 35 2
M  V30 39 1 35 10
M  V30 40 1 36 1
M  V30 41 1 37 3
M  V30 42 1 38 3
M  V30 43 1 39 3
M  V30 44 1 40 4
M  V30 45 1 41 4
M  V30 46 1 42 5
M  V30 47 1 43 7
M  V30 48 1 44 7
M  V30 49 1 10 45 CFG=3
M  V30 50 1 46 13
M  V30 51 1 47 13
M  V30 52 1 48 13
M  V30 53 1 49 14
M  V30 54 1 50 14
M  V30 55 1 51 16
M  V30 56 1 52 18
M  V30 57 1 53 18
M  V30 58 1 54 19
M  V30 59 1 55 20
M  V30 60 1 56 21
M  V30 61 1 57 21
M  V30 62 1 58 21
M  V30 63 1 59 23
M  V30 64 1 60 24
M  V30 65 1 61 24
M  V30 66 1 27 62 CFG=1
M  V30 67 1 63 29
M  V30 68 1 30 64 CFG=1
M  V30 69 1 65 31
M  V30 70 1 66 31
M  V30 71 1 67 34
M  V30 72 1 68 34
M  V30 73 1 69 35
M  V30 74 1 70 35
M  V30 75 1 2 71 CFG=3
M  V30 END BOND
M  V30 END CTAB
M  END
>  <i_epik_Tot_Q>  (1) 
1

>  <i_epik_Tot_abs_Q>  (1) 
1

>  <i_i_glide_confnum>  (1) 
24

>  <i_i_glide_lignum>  (1) 
5

>  <i_i_glide_posenum>  (1) 
43

>  <i_i_glide_rotatable_bonds>  (1) 
5

>  <i_lp_mmshare_version>  (1) 
72125

>  <i_m_source_file_index>  (1) 
3

>  <i_f3d_flags>  (1) 
0

>  <num_sample>  (1) 
100

>  <b_lp_Chiralities_Consistent>  (1) 
1

>  <r_epik_Charging_Adjusted_Penalty>  (1) 
2.4002963273514464

>  <r_epik_Ionization_Penalty>  (1) 
1.2026340853706476

>  <r_epik_Ionization_Penalty_Charging>  (1) 
1.2001481636757232

>  <r_epik_Ionization_Penalty_Neutral>  (1) 
0.0024859216949244217

>  <r_epik_State_Penalty>  (1) 
1.2001481636757232

>  <r_glide_ring_energy>  (1) 
0

>  <r_i_docking_score>  (1) 
-4.180453009133335

>  <r_i_glide_ecoul>  (1) 
-1.3336977157666099

>  <r_i_glide_eff_state_penalty>  (1) 
1.2001481636757232

>  <r_i_glide_einternal>  (1) 
8.5868257119204188

>  <r_i_glide_emodel>  (1) 
-43.974982400446358

>  <r_i_glide_emodel_strain>  (1) 
0.94680206170054504

>  <r_i_glide_energy>  (1) 
-39.485407457059715

>  <r_i_glide_erotb>  (1) 
0.26041846348708686

>  <r_i_glide_esite>  (1) 
0

>  <r_i_glide_evdw>  (1) 
-38.151709741293104

>  <r_i_glide_gscore>  (1) 
-5.3806011728090581

>  <r_i_glide_gscore_strain>  (1) 
0

>  <r_i_glide_hbond>  (1) 
0

>  <r_i_glide_ligand_efficiency>  (1) 
-0.11944151454666671

>  <r_i_glide_ligand_efficiency_ln>  (1) 
-0.9177022156604423

>  <r_i_glide_ligand_efficiency_sa>  (1) 
-0.39070111427150189

>  <r_i_glide_lipo>  (1) 
-1.6309963689219951

>  <r_i_glide_metal>  (1) 
-0

>  <r_i_glide_rewards>  (1) 
-1.902383122944503

>  <r_lp_Energy>  (1) 
76.336466000000001

>  <r_lp_tautomer_probability>  (1) 
0.99995000000000001

>  <s_epik_Chemistry_Notes>  (1) 
This compound contains an acetal/aminal-like group ( X-CH(R)-Y where X, Y are N, S, or O) that may be acid/base labile, releasing an aldehyde.

>  <s_epik_cmdline>  (1) 
J2VwaWtfcHl0aG9uJywgJy1waHQnLCAnMS4wJywgJy1waCcsICc3LjQnLCAnLXRuJywgJzgnLCAnLW1hJywgJzUwMCcsICctaW1hZScsICc8aW5maWxlLm1hZT4nLCAnLW9tYWUnLCAnPG91dGZpbGUubWFlPic=

>  <s_epik_input>  (1) 
TzFbQ0gyXVtDQF0xMmMzYyhbQ0gyXVtDSF09QzJGKVtjSF1jKFtjSF1bY0hdMylbQ0gyXU4oW0NAQEhdKFtPSF0pW0NIMl00KUMoPU8pW0NIMl1ONFtDQEhdKEM1KFtDSDNdKVtDSDNdKUMoPU8pW0NAQEhdKFtDSDJdW0NIM10pW0NIMl0vW0NIXT1bQ0hdXFtDSDJdNQ==

>  <s_glide_docking_method>  (1) 
confgen

>  <s_i_glide_gridfile>  (1) 
gpcr_drd2_6luq_protein_autoprepared_prepared

>  <s_lp_Force_Field>  (1) 
S-OPLS

>  <s_lp_Variant>  (1) 
DiffSBDD_2-2

>  <s_m_source_file>  (1) 
generated_generic_title2_ligand_DiffSBDD_2026-06-23_prepared.sdf

>  <GenAI_Model>  (1) 
DiffSBDD

>  <Protein>  (1) 
generic_title2

$$$$
DiffSBDD_88
     RDKit          3D

  0  0  0  0  0  0  0  0  0  0999 V3000
M  V30 BEGIN CTAB
M  V30 COUNTS 37 38 0 0 1
M  V30 BEGIN ATOM
M  V30 1 C 7.436167 3.184595 -12.820557 0 CFG=1
M  V30 2 F 6.582609 4.390305 -10.955832 0
M  V30 3 C 5.728634 -0.065822 -15.845067 0
M  V30 4 C 5.183012 -1.148561 -16.785006 0
M  V30 5 O 8.154697 2.333026 -17.047974 0
M  V30 6 O 5.408451 -1.535678 -19.185024 0
M  V30 7 O 8.767676 3.390033 -12.385074 0
M  V30 8 C 5.264949 -0.542955 -18.190878 0 CFG=2
M  V30 9 C 7.347343 4.386182 -15.112991 0
M  V30 10 N 6.582131 0.732577 -16.725990 0
M  V30 11 C 6.488898 4.282856 -12.281456 0 CFG=1
M  V30 12 F 6.530103 6.599726 -15.137369 0
M  V30 13 C 6.411961 5.442408 -14.485224 0 CFG=2
M  V30 14 C 7.426662 1.700005 -16.278620 0
M  V30 15 C 7.918434 6.412105 -12.640715 0
M  V30 16 N 7.359729 1.884009 -14.900338 0
M  V30 17 C 7.375460 3.042950 -14.338227 0
M  V30 18 C 6.470635 0.404881 -18.140753 0
M  V30 19 C 6.619154 5.653111 -12.975525 0 CFG=2
M  V30 20 H 7.113769 2.237737 -12.385025 0
M  V30 21 H 6.270963 -0.516613 -15.011657 0
M  V30 22 H 4.915836 0.538974 -15.445812 0
M  V30 23 H 4.175423 -1.466011 -16.518327 0
M  V30 24 H 5.826209 -2.027948 -16.723808 0
M  V30 25 H 5.375430 -1.119982 -20.033864 0
M  V30 26 H 9.094320 2.580396 -12.014939 0
M  V30 27 H 4.353943 0.023735 -18.385090 0
M  V30 28 H 8.366774 4.770148 -15.160592 0
M  V30 29 H 7.008176 4.273067 -16.140312 0
M  V30 30 H 5.466603 3.935739 -12.439672 0
M  V30 31 H 5.378710 5.135646 -14.651986 0
M  V30 32 H 8.804611 5.909959 -13.026671 0
M  V30 33 H 7.903558 7.415938 -13.065876 0
M  V30 34 H 8.039663 6.521799 -11.562079 0
M  V30 35 H 7.385971 -0.097613 -18.458565 0
M  V30 36 H 6.318255 1.285474 -18.766872 0
M  V30 37 H 5.800796 6.277632 -12.613624 0
M  V30 END ATOM
M  V30 BEGIN BOND
M  V30 1 1 4 3
M  V30 2 1 7 1
M  V30 3 1 8 4
M  V30 4 1 8 6
M  V30 5 1 10 3
M  V30 6 1 11 1
M  V30 7 1 11 2
M  V30 8 1 13 9
M  V30 9 1 13 12
M  V30 10 2 14 5
M  V30 11 1 14 10
M  V30 12 1 16 14
M  V30 13 1 17 1
M  V30 14 1 17 9
M  V30 15 2 17 16
M  V30 16 1 18 8
M  V30 17 1 18 10
M  V30 18 1 19 11
M  V30 19 1 19 13
M  V30 20 1 19 15
M  V30 21 1 1 20 CFG=1
M  V30 22 1 21 3
M  V30 23 1 22 3
M  V30 24 1 23 4
M  V30 25 1 24 4
M  V30 26 1 25 6
M  V30 27 1 26 7
M  V30 28 1 8 27 CFG=3
M  V30 29 1 28 9
M  V30 30 1 29 9
M  V30 31 1 11 30 CFG=1
M  V30 32 1 13 31 CFG=1
M  V30 33 1 32 15
M  V30 34 1 33 15
M  V30 35 1 34 15
M  V30 36 1 35 18
M  V30 37 1 36 18
M  V30 38 1 19 37 CFG=1
M  V30 END BOND
M  V30 END CTAB
M  END
>  <i_epik_Tot_Q>  (1) 
0

>  <i_epik_Tot_abs_Q>  (1) 
0

>  <i_i_glide_confnum>  (1) 
1

>  <i_i_glide_lignum>  (1) 
161

>  <i_i_glide_posenum>  (1) 
362

>  <i_i_glide_rotatable_bonds>  (1) 
4

>  <i_lp_mmshare_version>  (1) 
72125

>  <i_m_source_file_index>  (1) 
89

>  <i_f3d_flags>  (1) 
0

>  <num_sample>  (1) 
100

>  <b_lp_Chiralities_Consistent>  (1) 
1

>  <r_epik_Charging_Adjusted_Penalty>  (1) 
0.16120785643113181

>  <r_epik_Ionization_Penalty>  (1) 
0.1612079103687071

>  <r_epik_Ionization_Penalty_Charging>  (1) 
0

>  <r_epik_Ionization_Penalty_Neutral>  (1) 
0.1612079103687071

>  <r_epik_State_Penalty>  (1) 
0.16120785643113181

>  <r_glide_ring_energy>  (1) 
0

>  <r_i_docking_score>  (1) 
-4.1743061230014851

>  <r_i_glide_ecoul>  (1) 
-1.0045221815938332

>  <r_i_glide_eff_state_penalty>  (1) 
0.16120785643113181

>  <r_i_glide_einternal>  (1) 
1.3701063639297004

>  <r_i_glide_emodel>  (1) 
-33.876900727603719

>  <r_i_glide_emodel_strain>  (1) 
0.82800791455601797

>  <r_i_glide_energy>  (1) 
-27.785423568431323

>  <r_i_glide_erotb>  (1) 
0.47132455663783185

>  <r_i_glide_esite>  (1) 
-0.012976135094119913

>  <r_i_glide_evdw>  (1) 
-26.780901386837488

>  <r_i_glide_gscore>  (1) 
-4.3355139794326165

>  <r_i_glide_gscore_strain>  (1) 
0

>  <r_i_glide_hbond>  (1) 
-0.03834181165663049

>  <r_i_glide_ligand_efficiency>  (1) 
-0.21970032226323605

>  <r_i_glide_ligand_efficiency_ln>  (1) 
-1.0582762580557454

>  <r_i_glide_ligand_efficiency_sa>  (1) 
-0.58624870215196179

>  <r_i_glide_lipo>  (1) 
-0.88919420816415518

>  <r_i_glide_metal>  (1) 
-0

>  <r_i_glide_rewards>  (1) 
-2.3766029845745931

>  <r_lp_Energy>  (1) 
16.803401000000001

>  <s_epik_Chemistry_Notes>  (1) 
This compound has an imine and may undergo hydrolysis.

>  <s_epik_cmdline>  (1) 
J2VwaWtfcHl0aG9uJywgJy1waHQnLCAnMS4wJywgJy1waCcsICc3LjQnLCAnLXRuJywgJzgnLCAnLW1hJywgJzUwMCcsICctaW1hZScsICc8aW5maWxlLm1hZT4nLCAnLW9tYWUnLCAnPG91dGZpbGUubWFlPic=

>  <s_epik_input>  (1) 
W09IXVtDQEhdMVtDQEBIXShGKVtDQEBIXShbQ0gzXSlbQ0BASF0oRilbQ0gyXUMvMT1OXEMoPU8pTihbQ0gyXTIpW0NIMl1bQ0gyXVtDQEBIXTJbT0hd

>  <s_glide_docking_method>  (1) 
confgen

>  <s_i_glide_gridfile>  (1) 
gpcr_drd2_6luq_protein_autoprepared_prepared

>  <s_lp_Force_Field>  (1) 
S-OPLS

>  <s_lp_Variant>  (1) 
DiffSBDD_88-2

>  <s_m_source_file>  (1) 
generated_generic_title2_ligand_DiffSBDD_2026-06-23_prepared.sdf

>  <GenAI_Model>  (1) 
DiffSBDD

>  <Protein>  (1) 
generic_title2

$$$$
DiffSBDD_71
     RDKit          3D

  0  0  0  0  0  0  0  0  0  0999 V3000
M  V30 BEGIN CTAB
M  V30 COUNTS 55 57 0 0 1
M  V30 BEGIN ATOM
M  V30 1 C 7.596642 6.182662 -12.874555 0 CFG=1
M  V30 2 O 6.784806 2.707011 -13.496697 0
M  V30 3 C 6.646332 5.434618 -19.170290 0 CFG=1
M  V30 4 C 6.068754 6.937380 -16.657754 0
M  V30 5 C 6.621403 3.910963 -12.780067 0
M  V30 6 C 11.490929 8.313147 -8.739393 0
M  V30 7 C 7.683607 4.940413 -16.875581 0
M  V30 8 N 7.162618 4.972795 -13.634769 0
M  V30 9 C 9.773834 5.770224 -7.869587 0
M  V30 10 O 10.527614 8.789813 -6.630544 0
M  V30 11 O 6.585347 6.554885 -20.021875 0
M  V30 12 C 6.256753 5.284605 -14.744179 0
M  V30 13 C 6.469878 6.768912 -11.987601 0
M  V30 14 C 5.065944 6.319474 -17.645441 0 CFG=2
M  V30 15 C 10.576309 6.488710 -7.080493 0
M  V30 16 C 10.883991 7.989532 -9.889603 0
M  V30 17 C 11.188451 7.798728 -7.380935 0 CFG=1
M  V30 18 C 7.929351 5.504568 -18.296238 0
M  V30 19 O 5.521199 5.205710 -18.384467 0
M  V30 20 O 5.727947 8.666987 -20.385037 0
M  V30 21 C 8.869972 5.950514 -12.037072 0
M  V30 22 C 6.988576 5.950546 -15.925685 0 CFG=2
M  V30 23 C 5.701312 7.589873 -19.793261 0
M  V30 24 C 9.332412 6.078738 -9.223004 0
M  V30 25 C 9.794574 7.026726 -10.105597 0
M  V30 26 O 9.190531 7.076321 -11.346973 0
M  V30 27 C 4.634503 7.290663 -18.726239 0
M  V30 28 O 9.486765 4.884140 -11.978688 0
M  V30 29 H 7.859626 6.966889 -13.578857 0
M  V30 30 H 7.566965 2.280454 -13.180103 0
M  V30 31 H 6.710914 4.561385 -19.820775 0
M  V30 32 H 5.536290 7.567462 -15.944470 0
M  V30 33 H 6.703832 7.631360 -17.185078 0
M  V30 34 H 5.567415 4.083792 -12.557492 0
M  V30 35 H 7.141378 3.812662 -11.827884 0
M  V30 36 H 12.276797 9.054442 -8.777434 0
M  V30 37 H 8.642336 4.667671 -16.431923 0
M  V30 38 H 7.128792 4.004259 -16.940587 0
M  V30 39 H 9.390699 4.853977 -7.450336 0
M  V30 40 H 9.621145 8.792811 -6.904937 0
M  V30 41 H 5.775410 4.388529 -15.113907 0
M  V30 42 H 5.432664 5.902169 -14.392427 0
M  V30 43 H 6.759909 7.739677 -11.585040 0
M  V30 44 H 5.544292 6.945140 -12.531468 0
M  V30 45 H 6.234952 6.124693 -11.140260 0
M  V30 46 H 4.191216 5.991423 -17.083867 0
M  V30 47 H 10.790271 6.102535 -6.093978 0
M  V30 48 H 11.232459 8.508958 -10.768154 0
M  V30 49 H 12.175382 7.711475 -6.933509 0
M  V30 50 H 8.311609 6.523911 -18.262767 0
M  V30 51 H 8.697800 4.920261 -18.803813 0
M  V30 52 H 7.775595 6.580294 -15.533141 0
M  V30 53 H 8.531235 5.452306 -9.584370 0
M  V30 54 H 4.307180 8.226248 -18.276486 0
M  V30 55 H 3.775430 6.867362 -19.219484 0
M  V30 END ATOM
M  V30 BEGIN BOND
M  V30 1 1 5 2
M  V30 2 1 8 1
M  V30 3 1 8 5
M  V30 4 1 11 3
M  V30 5 1 12 8
M  V30 6 1 13 1
M  V30 7 1 14 4
M  V30 8 2 15 9
M  V30 9 2 16 6
M  V30 10 1 17 6
M  V30 11 1 17 10
M  V30 12 1 17 15
M  V30 13 1 18 3
M  V30 14 1 18 7
M  V30 15 1 19 3
M  V30 16 1 19 14
M  V30 17 1 21 1
M  V30 18 1 22 4
M  V30 19 1 22 7
M  V30 20 1 22 12
M  V30 21 1 23 11
M  V30 22 2 23 20
M  V30 23 1 24 9
M  V30 24 1 25 16
M  V30 25 2 25 24
M  V30 26 1 26 21
M  V30 27 1 26 25
M  V30 28 1 27 14
M  V30 29 1 27 23
M  V30 30 2 28 21
M  V30 31 1 1 29 CFG=3
M  V30 32 1 30 2
M  V30 33 1 3 31 CFG=3
M  V30 34 1 32 4
M  V30 35 1 33 4
M  V30 36 1 34 5
M  V30 37 1 35 5
M  V30 38 1 36 6
M  V30 39 1 37 7
M  V30 40 1 38 7
M  V30 41 1 39 9
M  V30 42 1 40 10
M  V30 43 1 41 12
M  V30 44 1 42 12
M  V30 45 1 43 13
M  V30 46 1 44 13
M  V30 47 1 45 13
M  V30 48 1 14 46 CFG=1
M  V30 49 1 47 15
M  V30 50 1 48 16
M  V30 51 1 17 49 CFG=1
M  V30 52 1 50 18
M  V30 53 1 51 18
M  V30 54 1 22 52 CFG=1
M  V30 55 1 53 24
M  V30 56 1 54 27
M  V30 57 1 55 27
M  V30 END BOND
M  V30 END CTAB
M  END
>  <i_epik_Tot_Q>  (1) 
0

>  <i_epik_Tot_abs_Q>  (1) 
0

>  <i_i_glide_confnum>  (1) 
56

>  <i_i_glide_lignum>  (1) 
115

>  <i_i_glide_posenum>  (1) 
83

>  <i_i_glide_rotatable_bonds>  (1) 
9

>  <i_lp_mmshare_version>  (1) 
72125

>  <i_m_source_file_index>  (1) 
72

>  <i_f3d_flags>  (1) 
0

>  <num_sample>  (1) 
100

>  <b_lp_Chiralities_Consistent>  (1) 
1

>  <r_epik_Charging_Adjusted_Penalty>  (1) 
0

>  <r_epik_Ionization_Penalty>  (1) 
0.0080147773199130048

>  <r_epik_Ionization_Penalty_Charging>  (1) 
0

>  <r_epik_Ionization_Penalty_Neutral>  (1) 
0.0080147773199130048

>  <r_epik_State_Penalty>  (1) 
-0

>  <r_glide_ring_energy>  (1) 
0.62074138562282111

>  <r_i_docking_score>  (1) 
-4.1724767341850377

>  <r_i_glide_ecoul>  (1) 
-1.188796866136296

>  <r_i_glide_eff_state_penalty>  (1) 
-0

>  <r_i_glide_einternal>  (1) 
4.2593819353638924

>  <r_i_glide_emodel>  (1) 
-40.933353962590559

>  <r_i_glide_emodel_strain>  (1) 
0.9773497824378552

>  <r_i_glide_energy>  (1) 
-35.33558202348398

>  <r_i_glide_erotb>  (1) 
0.75718691864975285

>  <r_i_glide_esite>  (1) 
0

>  <r_i_glide_evdw>  (1) 
-34.146785157347686

>  <r_i_glide_gscore>  (1) 
-4.1724767341850377

>  <r_i_glide_gscore_strain>  (1) 
0

>  <r_i_glide_hbond>  (1) 
0

>  <r_i_glide_ligand_efficiency>  (1) 
-0.14901702622089422

>  <r_i_glide_ligand_efficiency_ln>  (1) 
-0.96313013949018145

>  <r_i_glide_ligand_efficiency_sa>  (1) 
-0.45250345844407386

>  <r_i_glide_lipo>  (1) 
-1.8477227448573681

>  <r_i_glide_metal>  (1) 
-0

>  <r_i_glide_rewards>  (1) 
-1.1962821201895943

>  <r_lp_Energy>  (1) 
45.945371999999999

>  <r_lp_tautomer_probability>  (1) 
1

>  <s_epik_Chemistry_Notes>  (1) 
This compound has an ester and may undergo hydrolysis at high or low pH. This compound contains an acetal/aminal-like group ( X-CH(R)-Y where X, Y are N, S, or O) that may be acid/base labile, releasing an aldehyde.

>  <s_epik_cmdline>  (1) 
J2VwaWtfcHl0aG9uJywgJy1waHQnLCAnMS4wJywgJy1waCcsICc3LjQnLCAnLXRuJywgJzgnLCAnLW1hJywgJzUwMCcsICctaW1hZScsICc8aW5maWxlLm1hZT4nLCAnLW9tYWUnLCAnPG91dGZpbGUubWFlPic=

>  <s_epik_input>  (1) 
W09IXVtDQEBIXTFbQ0hdPVtDSF1DKD1bQ0hdW0NIXT1bQ0hdMSlPQyg9TylbQ0BIXShbQ0gzXSlOKFtDSDJdW09IXSlbQ0gyXVtDQEBIXShbQ0gyXVtDSDJdMilbQ0gyXVtDQEhdKE8zKVtDSDJdQyg9TylPW0NAQEhdMjM=

>  <s_glide_docking_method>  (1) 
confgen

>  <s_i_glide_gridfile>  (1) 
gpcr_drd2_6luq_protein_autoprepared_prepared

>  <s_lp_Force_Field>  (1) 
S-OPLS

>  <s_lp_Variant>  (1) 
DiffSBDD_71-1

>  <s_m_source_file>  (1) 
generated_generic_title2_ligand_DiffSBDD_2026-06-23_prepared.sdf

>  <GenAI_Model>  (1) 
DiffSBDD

>  <Protein>  (1) 
generic_title2

$$$$
DiffSBDD_18
     RDKit          3D

  0  0  0  0  0  0  0  0  0  0999 V3000
M  V30 BEGIN CTAB
M  V30 COUNTS 38 39 0 0 1
M  V30 BEGIN ATOM
M  V30 1 C 11.420188 6.837146 -4.365683 0
M  V30 2 C 11.775306 6.587546 -3.026911 0
M  V30 3 O 11.375422 9.562619 -6.784828 0
M  V30 4 S 9.544322 5.990048 -8.945749 0
M  V30 5 C 6.588230 6.969583 -15.145641 0
M  V30 6 C 9.375308 6.392525 -10.700584 0
M  V30 7 N 8.445797 5.590087 -11.334430 0
M  V30 8 C 5.812629 6.329051 -13.983621 0
M  V30 9 C 11.177029 8.446665 -6.311645 0
M  V30 10 C 7.696989 4.498668 -13.517067 0 CFG=2
M  V30 11 C 11.922570 9.206285 -4.036994 0
M  V30 12 C 8.078495 5.724007 -12.705809 0 CFG=1
M  V30 13 N 10.678141 7.418753 -7.012165 0
M  V30 14 C 11.503289 8.156389 -4.877986 0
M  V30 15 C 12.260591 8.948250 -2.701874 0
M  V30 16 C 12.196332 7.641387 -2.201294 0
M  V30 17 O 10.030508 7.296136 -11.221957 0
M  V30 18 C 10.332040 7.534087 -8.416945 0
M  V30 19 C 6.621613 5.442388 -13.043821 0 CFG=1
M  V30 20 O 7.740191 3.289965 -12.785162 0
M  V30 21 H 11.102797 6.019423 -4.995420 0
M  V30 22 H 11.723946 5.589225 -2.632772 0
M  V30 23 H 5.919660 7.569453 -15.763548 0
M  V30 24 H 7.372924 7.636010 -14.784993 0
M  V30 25 H 7.042332 6.219832 -15.792593 0
M  V30 26 H 7.984563 4.892329 -10.769115 0
M  V30 27 H 4.976892 5.745160 -14.374919 0
M  V30 28 H 5.374193 7.124382 -13.381733 0
M  V30 29 H 7.974097 4.429319 -14.567103 0
M  V30 30 H 11.984959 10.212979 -4.421304 0
M  V30 31 H 8.575628 6.514951 -13.261476 0
M  V30 32 H 10.536014 6.529172 -6.559332 0
M  V30 33 H 12.575340 9.754548 -2.060858 0
M  V30 34 H 12.471480 7.446858 -1.185004 0
M  V30 35 H 11.239143 7.714765 -8.995618 0
M  V30 36 H 9.644611 8.366579 -8.581285 0
M  V30 37 H 6.012139 5.074995 -12.218817 0
M  V30 38 H 8.642984 3.022872 -12.692344 0
M  V30 END ATOM
M  V30 BEGIN BOND
M  V30 1 1 2 1
M  V30 2 1 6 4
M  V30 3 1 7 6
M  V30 4 1 8 5
M  V30 5 2 9 3
M  V30 6 1 12 7
M  V30 7 1 12 10
M  V30 8 1 13 9
M  V30 9 2 14 1
M  V30 10 1 14 9
M  V30 11 1 14 11
M  V30 12 2 15 11
M  V30 13 2 16 2
M  V30 14 1 16 15
M  V30 15 2 17 6
M  V30 16 1 18 4
M  V30 17 1 18 13
M  V30 18 1 19 8
M  V30 19 1 19 10
M  V30 20 1 19 12
M  V30 21 1 20 10
M  V30 22 1 21 1
M  V30 23 1 22 2
M  V30 24 1 23 5
M  V30 25 1 24 5
M  V30 26 1 25 5
M  V30 27 1 26 7
M  V30 28 1 27 8
M  V30 29 1 28 8
M  V30 30 1 10 29 CFG=3
M  V30 31 1 30 11
M  V30 32 1 12 31 CFG=3
M  V30 33 1 32 13
M  V30 34 1 33 15
M  V30 35 1 34 16
M  V30 36 1 35 18
M  V30 37 1 36 18
M  V30 38 1 19 37 CFG=1
M  V30 39 1 38 20
M  V30 END BOND
M  V30 END CTAB
M  END
>  <i_epik_Tot_Q>  (1) 
0

>  <i_epik_Tot_abs_Q>  (1) 
0

>  <i_i_glide_confnum>  (1) 
53

>  <i_i_glide_lignum>  (1) 
35

>  <i_i_glide_posenum>  (1) 
93

>  <i_i_glide_rotatable_bonds>  (1) 
9

>  <i_lp_mmshare_version>  (1) 
72125

>  <i_m_source_file_index>  (1) 
19

>  <i_f3d_flags>  (1) 
0

>  <num_sample>  (1) 
100

>  <b_lp_Chiralities_Consistent>  (1) 
1

>  <r_epik_Charging_Adjusted_Penalty>  (1) 
0

>  <r_epik_Ionization_Penalty>  (1) 
2.0525633642560989e-05

>  <r_epik_Ionization_Penalty_Charging>  (1) 
0

>  <r_epik_Ionization_Penalty_Neutral>  (1) 
2.0525633642560989e-05

>  <r_epik_State_Penalty>  (1) 
-0

>  <r_glide_ring_energy>  (1) 
0

>  <r_i_docking_score>  (1) 
-4.1680475115617233

>  <r_i_glide_ecoul>  (1) 
-3.6050839548488387

>  <r_i_glide_eff_state_penalty>  (1) 
-0

>  <r_i_glide_einternal>  (1) 
2.1044127501190513

>  <r_i_glide_emodel>  (1) 
-48.806580828479632

>  <r_i_glide_emodel_strain>  (1) 
0.031015823857039493

>  <r_i_glide_energy>  (1) 
-37.697545304404152

>  <r_i_glide_erotb>  (1) 
2.5324251451788915

>  <r_i_glide_esite>  (1) 
-0.1002685848345079

>  <r_i_glide_evdw>  (1) 
-34.092461349555315

>  <r_i_glide_gscore>  (1) 
-4.1680475115617233

>  <r_i_glide_gscore_strain>  (1) 
0

>  <r_i_glide_hbond>  (1) 
0

>  <r_i_glide_ligand_efficiency>  (1) 
-0.20840237557808616

>  <r_i_glide_ligand_efficiency_ln>  (1) 
-1.0431248207364172

>  <r_i_glide_ligand_efficiency_sa>  (1) 
-0.56569107960938525

>  <r_i_glide_lipo>  (1) 
-2.1516848157929451

>  <r_i_glide_metal>  (1) 
-0

>  <r_i_glide_rewards>  (1) 
-2.2031335954080706

>  <r_lp_Energy>  (1) 
17.985703999999998

>  <r_lp_tautomer_probability>  (1) 
1

>  <s_epik_Chemistry_Notes>  (1) 
This compound contains an acetal/aminal-like group ( X-CH(R)-Y where X, Y are N, S, or O) that may be acid/base labile, releasing an aldehyde.

>  <s_epik_cmdline>  (1) 
J2VwaWtfcHl0aG9uJywgJy1waHQnLCAnMS4wJywgJy1waCcsICc3LjQnLCAnLXRuJywgJzgnLCAnLW1hJywgJzUwMCcsICctaW1hZScsICc8aW5maWxlLm1hZT4nLCAnLW9tYWUnLCAnPG91dGZpbGUubWFlPic=

>  <s_epik_input>  (1) 
W2NIXTFbY0hdW2NIXVtjSF1bY0hdYzFDKD1PKVtOSF1bQ0gyXVNDKD1PKVtOSF1bQ0BASF0oW0NIXTJbT0hdKVtDQEhdMltDSDJdW0NIM10=

>  <s_glide_docking_method>  (1) 
confgen

>  <s_i_glide_gridfile>  (1) 
gpcr_drd2_6luq_protein_autoprepared_prepared

>  <s_lp_Force_Field>  (1) 
S-OPLS

>  <s_lp_Variant>  (1) 
DiffSBDD_18-2

>  <s_m_source_file>  (1) 
generated_generic_title2_ligand_DiffSBDD_2026-06-23_prepared.sdf

>  <GenAI_Model>  (1) 
DiffSBDD

>  <Protein>  (1) 
generic_title2

$$$$
DiffSBDD_8
     RDKit          3D

  0  0  0  0  0  0  0  0  0  0999 V3000
M  V30 BEGIN CTAB
M  V30 COUNTS 61 63 0 0 1
M  V30 BEGIN ATOM
M  V30 1 C 9.276772 4.212050 -11.259463 0
M  V30 2 O 10.543011 7.189985 -12.213718 0
M  V30 3 C 7.150148 0.021848 -16.656651 0
M  V30 4 N 8.575413 8.064225 -11.585039 0
M  V30 5 C 8.747984 4.624350 -16.540288 0 CFG=2
M  V30 6 C 7.416742 2.324336 -15.035291 0
M  V30 7 N 9.375410 7.358221 -8.898444 0 CHG=1
M  V30 8 C 9.411945 6.499385 -19.785923 0
M  V30 9 C 8.691386 4.040986 -19.615869 0
M  V30 10 O 10.703450 4.830317 -17.781678 0
M  V30 11 C 7.987935 1.074087 -17.066724 0
M  V30 12 C 8.587326 6.920963 -21.010230 0
M  V30 13 O 8.974220 3.240510 -16.713109 0
M  V30 14 S 6.944796 3.366764 -12.440768 0
M  V30 15 C 7.264044 4.960581 -16.285470 0
M  V30 16 C 7.563987 3.565877 -14.147957 0 CFG=2
M  V30 17 N 7.928446 4.550112 -11.683855 0
M  V30 18 F 7.022763 -1.080636 -17.432221 0
M  V30 19 C 11.630877 5.742514 -17.216029 0
M  V30 20 C 7.561221 5.052062 -10.372925 0
M  V30 21 C 6.945470 4.814602 -14.792342 0
M  V30 22 C 9.064570 5.167442 -10.074154 0
M  V30 23 C 8.730124 5.418076 -18.918454 0 CFG=1
M  V30 24 N 9.382529 5.387273 -17.600082 0
M  V30 25 C 9.651434 7.298432 -11.378793 0
M  V30 26 C 6.445645 0.111701 -15.444893 0
M  V30 27 C 6.575440 1.253685 -14.634017 0
M  V30 28 C 8.127839 2.230235 -16.271993 0
M  V30 29 C 9.780894 6.542151 -10.049844 0 CFG=1
M  V30 30 H 9.375406 3.168892 -10.964962 0
M  V30 31 H 10.047915 4.509369 -11.971468 0
M  V30 32 H 8.487339 8.584662 -12.445079 0
M  V30 33 H 7.818409 8.076964 -10.897256 0
M  V30 34 H 9.318657 4.891623 -15.651766 0
M  V30 35 H 9.910516 8.212502 -8.875681 0
M  V30 36 H 8.377849 7.589875 -9.022395 0
M  V30 37 H 9.583568 7.392181 -19.185044 0
M  V30 38 H 10.397688 6.159234 -20.105527 0
M  V30 39 H 8.224957 4.107975 -20.597444 0
M  V30 40 H 9.688956 3.625046 -19.757603 0
M  V30 41 H 8.102896 3.321197 -19.050392 0
M  V30 42 H 8.527780 0.996226 -17.998440 0
M  V30 43 H 9.074030 7.740523 -21.539069 0
M  V30 44 H 8.466357 6.102814 -21.719424 0
M  V30 45 H 7.594399 7.263080 -20.717237 0
M  V30 46 H 7.082150 5.998781 -16.564404 0
M  V30 47 H 6.630083 4.353144 -16.929757 0
M  V30 48 H 8.636166 3.706250 -14.027438 0
M  V30 49 H 12.637821 5.337620 -17.312953 0
M  V30 50 H 11.607658 6.703305 -17.731352 0
M  V30 51 H 11.441070 5.907771 -16.153987 0
M  V30 52 H 7.012078 5.990203 -10.418881 0
M  V30 53 H 7.049253 4.304411 -9.764885 0
M  V30 54 H 7.288716 5.698644 -14.253189 0
M  V30 55 H 5.861602 4.791747 -14.675610 0
M  V30 56 H 9.277942 4.620686 -9.154729 0
M  V30 57 H 7.701792 5.742909 -18.765184 0
M  V30 58 H 5.803526 -0.700608 -15.133541 0
M  V30 59 H 6.028199 1.305938 -13.707007 0
M  V30 60 H 10.840356 6.390313 -9.874004 0
M  V30 61 H 9.488358 6.844765 -8.037703 0
M  V30 END ATOM
M  V30 BEGIN BOND
M  V30 1 2 11 3
M  V30 2 1 12 8
M  V30 3 1 13 5
M  V30 4 1 15 5
M  V30 5 1 16 6
M  V30 6 1 16 14
M  V30 7 1 17 1
M  V30 8 1 17 14
M  V30 9 1 18 3
M  V30 10 1 19 10
M  V30 11 1 20 17
M  V30 12 1 21 15
M  V30 13 1 21 16
M  V30 14 1 22 1
M  V30 15 1 22 20
M  V30 16 1 23 8
M  V30 17 1 23 9
M  V30 18 1 24 5
M  V30 19 1 24 10
M  V30 20 1 24 23
M  V30 21 2 25 2
M  V30 22 1 25 4
M  V30 23 1 26 3
M  V30 24 1 27 6
M  V30 25 2 27 26
M  V30 26 2 28 6
M  V30 27 1 28 11
M  V30 28 1 28 13
M  V30 29 1 29 7
M  V30 30 1 29 22
M  V30 31 1 29 25
M  V30 32 1 30 1
M  V30 33 1 31 1
M  V30 34 1 32 4
M  V30 35 1 33 4
M  V30 36 1 5 34 CFG=1
M  V30 37 1 35 7
M  V30 38 1 36 7
M  V30 39 1 37 8
M  V30 40 1 38 8
M  V30 41 1 39 9
M  V30 42 1 40 9
M  V30 43 1 41 9
M  V30 44 1 42 11
M  V30 45 1 43 12
M  V30 46 1 44 12
M  V30 47 1 45 12
M  V30 48 1 46 15
M  V30 49 1 47 15
M  V30 50 1 16 48 CFG=1
M  V30 51 1 49 19
M  V30 52 1 50 19
M  V30 53 1 51 19
M  V30 54 1 52 20
M  V30 55 1 53 20
M  V30 56 1 54 21
M  V30 57 1 55 21
M  V30 58 1 56 22
M  V30 59 1 23 57 CFG=1
M  V30 60 1 58 26
M  V30 61 1 59 27
M  V30 62 1 29 60 CFG=1
M  V30 63 1 61 7
M  V30 END BOND
M  V30 END CTAB
M  END
>  <i_epik_Tot_Q>  (1) 
1

>  <i_epik_Tot_abs_Q>  (1) 
1

>  <i_i_glide_confnum>  (1) 
514

>  <i_i_glide_lignum>  (1) 
15

>  <i_i_glide_posenum>  (1) 
269

>  <i_i_glide_rotatable_bonds>  (1) 
8

>  <i_lp_mmshare_version>  (1) 
72125

>  <i_m_source_file_index>  (1) 
9

>  <i_f3d_flags>  (1) 
0

>  <num_sample>  (1) 
100

>  <b_lp_Chiralities_Consistent>  (1) 
1

>  <r_epik_Charging_Adjusted_Penalty>  (1) 
1.6197365423892824

>  <r_epik_Ionization_Penalty>  (1) 
0.73483714514200482

>  <r_epik_Ionization_Penalty_Charging>  (1) 
0.26301760809738622

>  <r_epik_Ionization_Penalty_Neutral>  (1) 
0.47181953704461854

>  <r_epik_State_Penalty>  (1) 
1.3567189342918962

>  <r_glide_ring_energy>  (1) 
2.1725327972353821

>  <r_i_docking_score>  (1) 
-4.1605543330678021

>  <r_i_glide_ecoul>  (1) 
-11.731673928605067

>  <r_i_glide_eff_state_penalty>  (1) 
1.3567189342918962

>  <r_i_glide_einternal>  (1) 
12.392472074433261

>  <r_i_glide_emodel>  (1) 
-45.631267579968622

>  <r_i_glide_emodel_strain>  (1) 
0.31613714733175158

>  <r_i_glide_energy>  (1) 
-37.71143329080153

>  <r_i_glide_erotb>  (1) 
0.54307168116637361

>  <r_i_glide_esite>  (1) 
-0.27184371442153171

>  <r_i_glide_evdw>  (1) 
-25.979759362196464

>  <r_i_glide_gscore>  (1) 
-5.5172732673596983

>  <r_i_glide_gscore_strain>  (1) 
0

>  <r_i_glide_hbond>  (1) 
-0.34422543271828865

>  <r_i_glide_ligand_efficiency>  (1) 
-0.14346739079544146

>  <r_i_glide_ligand_efficiency_ln>  (1) 
-0.95266143971764949

>  <r_i_glide_ligand_efficiency_sa>  (1) 
-0.4407772786780817

>  <r_i_glide_lipo>  (1) 
-1.4589450797446701

>  <r_i_glide_metal>  (1) 
-0

>  <r_i_glide_rewards>  (1) 
-0.92659166424099859

>  <r_lp_Energy>  (1) 
41.059792999999999

>  <s_epik_Chemistry_Notes>  (1) 
This compound contains an acetal/aminal-like group ( X-CH(R)-Y where X, Y are N, S, or O) that may be acid/base labile, releasing an aldehyde. This compound has a N-S or N-O group and may undergo hydrolysis at high or low pH.

>  <s_epik_cmdline>  (1) 
J2VwaWtfcHl0aG9uJywgJy1waHQnLCAnMS4wJywgJy1waCcsICc3LjQnLCAnLXRuJywgJzgnLCAnLW1hJywgJzUwMCcsICctaW1hZScsICc8aW5maWxlLm1hZT4nLCAnLW9tYWUnLCAnPG91dGZpbGUubWFlPic=

>  <s_epik_input>  (1) 
Tz1DKFtOSDJdKVtDQEBIXShbTkgyXSlbQ0hdKFtDSDJdMSlbQ0gyXU4xU1tDQEBIXTJbQ0gyXVtDSDJdW0NASF0oTihPW0NIM10pW0NASF0oW0NIM10pW0NIMl1bQ0gzXSlPYyhjMjMpW2NIXWMoRilbY0hdW2NIXTM=

>  <s_glide_docking_method>  (1) 
confgen

>  <s_i_glide_gridfile>  (1) 
gpcr_drd2_6luq_protein_autoprepared_prepared

>  <s_lp_Force_Field>  (1) 
S-OPLS

>  <s_lp_Variant>  (1) 
DiffSBDD_8-5

>  <s_m_source_file>  (1) 
generated_generic_title2_ligand_DiffSBDD_2026-06-23_prepared.sdf

>  <GenAI_Model>  (1) 
DiffSBDD

>  <Protein>  (1) 
generic_title2

$$$$
DiffSBDD_90
     RDKit          3D

  0  0  0  0  0  0  0  0  0  0999 V3000
M  V30 BEGIN CTAB
M  V30 COUNTS 80 84 0 0 1
M  V30 BEGIN ATOM
M  V30 1 C 7.435086 7.489152 -12.802931 0
M  V30 2 C 8.575633 6.476324 -12.639791 0 CFG=1
M  V30 3 C 10.515274 7.817307 -9.850661 0
M  V30 4 C 7.021183 5.151464 -18.298836 0 CFG=2
M  V30 5 C 11.009218 7.057395 -11.833940 0
M  V30 6 C 10.792663 8.400413 -8.569803 0 CFG=2
M  V30 7 C 6.490790 4.248083 -14.549269 0 CFG=2
M  V30 8 O 6.574725 7.157707 -14.991164 0
M  V30 9 C 6.420013 6.724938 -13.661733 0 CFG=1
M  V30 10 C 5.533612 7.269730 -18.564092 0
M  V30 11 O 6.291363 6.185352 -22.646167 0
M  V30 12 C 9.639168 6.945260 -11.691269 0
M  V30 13 C 7.506610 4.416363 -11.282094 0 CFG=2
M  V30 14 O 5.030055 5.648046 -20.866260 0 CHG=-1
M  V30 15 O 6.174650 4.211060 -18.929021 0
M  V30 16 C 7.342275 4.250087 -15.903079 0 CFG=2
M  V30 17 N 6.722267 5.190394 -16.861383 0
M  V30 18 N 6.776053 5.302655 -13.541646 0
M  V30 19 C 9.483878 7.103719 -20.217660 0
M  V30 20 C 7.720955 2.878293 -16.595401 0
M  V30 21 O 8.233386 4.790031 -10.130996 0
M  V30 22 O 6.651611 2.129193 -17.126976 0
M  V30 23 O 8.035666 1.317834 -12.785092 0
M  V30 24 C 8.399849 3.743690 -12.301072 0 CFG=1
M  V30 25 C 6.061384 6.095337 -21.419880 0
M  V30 26 C 6.523232 2.890613 -13.822001 0
M  V30 27 N 11.460026 7.612931 -10.668266 0
M  V30 28 O 9.775590 6.490017 -19.188640 0
M  V30 29 C 12.252167 8.878476 -8.998385 0
M  V30 30 N 9.375413 7.431993 -10.420798 0 CHG=1
M  V30 31 C 6.855947 6.552440 -18.950438 0 CFG=2
M  V30 32 O 9.806582 8.530400 -5.985518 0
M  V30 33 O 10.944263 7.373472 -7.604267 0
M  V30 34 C 10.957048 7.830709 -6.296382 0
M  V30 35 C 10.463540 8.112777 -20.811097 0
M  V30 36 C 7.179701 6.574413 -20.490590 0
M  V30 37 C 7.917380 2.643925 -13.243355 0 CFG=2
M  V30 38 C 8.636490 7.839683 -6.385055 0
M  V30 39 N 8.315401 6.978011 -20.955133 0
M  V30 40 C 12.757555 8.020667 -10.239061 0
M  V30 41 C 7.855991 5.141556 -12.572040 0 CFG=1
M  V30 42 H 6.982498 7.720296 -11.838237 0
M  V30 43 H 7.774459 8.425243 -13.246750 0
M  V30 44 H 9.096300 6.390401 -13.584459 0
M  V30 45 H 8.051563 4.841323 -18.461439 0
M  V30 46 H 11.663657 6.814010 -12.659721 0
M  V30 47 H 10.072625 9.188908 -8.362349 0
M  V30 48 H 5.444523 4.401764 -14.791368 0
M  V30 49 H 5.939654 7.841699 -15.151482 0
M  V30 50 H 5.390259 6.895071 -13.341646 0
M  V30 51 H 5.375735 8.167376 -19.163274 0
M  V30 52 H 4.655618 6.631941 -18.671303 0
M  V30 53 H 5.550566 7.591061 -17.522894 0
M  V30 54 H 6.502169 4.040118 -11.095904 0
M  V30 55 H 5.677891 4.667487 -19.613340 0
M  V30 56 H 8.312518 4.668770 -15.630141 0
M  V30 57 H 6.728046 6.133821 -16.467631 0
M  V30 58 H 8.262316 2.186057 -15.964393 0
M  V30 59 H 8.425216 3.051543 -17.407050 0
M  V30 60 H 8.231688 4.064477 -9.525786 0
M  V30 61 H 6.232499 2.691989 -17.774433 0
M  V30 62 H 8.781519 1.244130 -12.197049 0
M  V30 63 H 9.462818 3.688341 -12.066803 0
M  V30 64 H 5.777743 2.872252 -13.026024 0
M  V30 65 H 6.240171 2.081849 -14.493065 0
M  V30 66 H 12.168605 9.909088 -9.344699 0
M  V30 67 H 12.966949 8.884381 -8.175634 0
M  V30 68 H 7.579848 7.188863 -18.448823 0
M  V30 69 H 11.045312 6.966754 -5.636772 0
M  V30 70 H 11.814154 8.481825 -6.125806 0
M  V30 71 H 9.975161 9.073765 -20.973971 0
M  V30 72 H 11.308216 8.273177 -20.140995 0
M  V30 73 H 10.845686 7.754916 -21.768814 0
M  V30 74 H 8.575770 2.701122 -14.077153 0
M  V30 75 H 7.775597 8.390335 -6.020476 0
M  V30 76 H 8.574551 7.764496 -7.467572 0
M  V30 77 H 8.607516 6.825178 -5.986478 0
M  V30 78 H 13.291903 7.190343 -9.798391 0
M  V30 79 H 13.312936 8.567090 -11.003272 0
M  V30 80 H 8.441389 7.505085 -9.988593 0
M  V30 END ATOM
M  V30 BEGIN BOND
M  V30 1 1 2 1
M  V30 2 1 6 3
M  V30 3 1 9 1
M  V30 4 1 9 8
M  V30 5 1 12 2
M  V30 6 2 12 5
M  V30 7 1 15 4
M  V30 8 1 16 7
M  V30 9 1 17 4
M  V30 10 1 17 16
M  V30 11 1 18 7
M  V30 12 1 18 9
M  V30 13 1 20 16
M  V30 14 1 21 13
M  V30 15 1 22 20
M  V30 16 1 24 13
M  V30 17 2 25 11
M  V30 18 1 25 14
M  V30 19 1 26 7
M  V30 20 1 27 3
M  V30 21 1 27 5
M  V30 22 2 28 19
M  V30 23 1 29 6
M  V30 24 2 30 3
M  V30 25 1 30 12
M  V30 26 1 31 4
M  V30 27 1 31 10
M  V30 28 1 33 6
M  V30 29 1 34 32
M  V30 30 1 34 33
M  V30 31 1 35 19
M  V30 32 1 36 25
M  V30 33 1 36 31
M  V30 34 1 37 23
M  V30 35 1 37 24
M  V30 36 1 37 26
M  V30 37 1 38 32
M  V30 38 1 39 19
M  V30 39 2 39 36
M  V30 40 1 40 27
M  V30 41 1 40 29
M  V30 42 1 41 2
M  V30 43 1 41 13
M  V30 44 1 41 18 CFG=3
M  V30 45 1 41 24
M  V30 46 1 42 1
M  V30 47 1 43 1
M  V30 48 1 2 44 CFG=3
M  V30 49 1 4 45 CFG=1
M  V30 50 1 46 5
M  V30 51 1 6 47 CFG=1
M  V30 52 1 7 48 CFG=3
M  V30 53 1 49 8
M  V30 54 1 9 50 CFG=1
M  V30 55 1 51 10
M  V30 56 1 52 10
M  V30 57 1 53 10
M  V30 58 1 13 54 CFG=1
M  V30 59 1 55 15
M  V30 60 1 16 56 CFG=1
M  V30 61 1 57 17
M  V30 62 1 58 20
M  V30 63 1 59 20
M  V30 64 1 60 21
M  V30 65 1 61 22
M  V30 66 1 62 23
M  V30 67 1 24 63 CFG=1
M  V30 68 1 64 26
M  V30 69 1 65 26
M  V30 70 1 66 29
M  V30 71 1 67 29
M  V30 72 1 31 68 CFG=1
M  V30 73 1 69 34
M  V30 74 1 70 34
M  V30 75 1 71 35
M  V30 76 1 72 35
M  V30 77 1 73 35
M  V30 78 1 37 74 CFG=3
M  V30 79 1 75 38
M  V30 80 1 76 38
M  V30 81 1 77 38
M  V30 82 1 78 40
M  V30 83 1 79 40
M  V30 84 1 80 30
M  V30 END BOND
M  V30 END CTAB
M  END
>  <i_epik_Tot_Q>  (1) 
0

>  <i_epik_Tot_abs_Q>  (1) 
2

>  <i_i_glide_confnum>  (1) 
3167

>  <i_i_glide_lignum>  (1) 
172

>  <i_i_glide_posenum>  (1) 
222

>  <i_i_glide_rotatable_bonds>  (1) 
17

>  <i_lp_mmshare_version>  (1) 
72125

>  <i_m_source_file_index>  (1) 
91

>  <i_f3d_flags>  (1) 
0

>  <num_sample>  (1) 
100

>  <b_lp_Chiralities_Consistent>  (1) 
1

>  <r_epik_Charging_Adjusted_Penalty>  (1) 
1.2730775069092737

>  <r_epik_Ionization_Penalty>  (1) 
0.33079184029548347

>  <r_epik_Ionization_Penalty_Charging>  (1) 
4.3976256739559524e-06

>  <r_epik_Ionization_Penalty_Neutral>  (1) 
0.33078744266980953

>  <r_epik_State_Penalty>  (1) 
1.2730731092835996

>  <r_glide_ring_energy>  (1) 
0

>  <r_i_docking_score>  (1) 
-4.1575744799255965

>  <r_i_glide_ecoul>  (1) 
-9.8823436400816238

>  <r_i_glide_eff_state_penalty>  (1) 
1.2730731092835996

>  <r_i_glide_einternal>  (1) 
41.820242438349752

>  <r_i_glide_emodel>  (1) 
-28.491249323600947

>  <r_i_glide_emodel_strain>  (1) 
4.8129059456270795

>  <r_i_glide_energy>  (1) 
-40.017685171296023

>  <r_i_glide_erotb>  (1) 
0.57888693115673628

>  <r_i_glide_esite>  (1) 
-0.12629580759705097

>  <r_i_glide_evdw>  (1) 
-30.135341531214401

>  <r_i_glide_gscore>  (1) 
-5.4306475892091965

>  <r_i_glide_gscore_strain>  (1) 
0.20322648640676988

>  <r_i_glide_hbond>  (1) 
-0.52000000000000002

>  <r_i_glide_ligand_efficiency>  (1) 
-0.10140425560794138

>  <r_i_glide_ligand_efficiency_ln>  (1) 
-0.882043261689757

>  <r_i_glide_ligand_efficiency_sa>  (1) 
-0.34966390243548068

>  <r_i_glide_lipo>  (1) 
-1.584649108891141

>  <r_i_glide_metal>  (1) 
-0

>  <r_i_glide_rewards>  (1) 
-0.99269746771154632

>  <r_lp_Energy>  (1) 
62.565444999999997

>  <s_epik_Chemistry_Notes>  (1) 
This compound has an imine and may undergo hydrolysis. This compound contains an acetal/aminal-like group ( X-CH(R)-Y where X, Y are N, S, or O) that may be acid/base labile, releasing an aldehyde.

>  <s_epik_cmdline>  (1) 
J2VwaWtfcHl0aG9uJywgJy1waHQnLCAnMS4wJywgJy1waCcsICc3LjQnLCAnLXRuJywgJzgnLCAnLW1hJywgJzUwMCcsICctaW1hZScsICc8aW5maWxlLm1hZT4nLCAnLW9tYWUnLCAnPG91dGZpbGUubWFlPic=

>  <s_epik_input>  (1) 
W0NIM11PW0NIMl1PW0NASF0xW0NIMl1bQ0gyXW4oYzEyKVtjSF1jKG4yKVtDQEBIXTNbQ0gyXVtDQEBIXShbT0hdKU4oW0NAQF0zNDUpW0NASF0oW0NIMl1bQ0BIXShbT0hdKVtDQEBIXTVbQ0BIXTRbT0hdKVtDQEBIXShbQ0gyXVtPSF0pW05IXVtDQEBIXShbT0hdKVtDQEhdKFtDSDNdKUMoXEMoPU8pW09IXSk9Ti9DKD1PKVtDSDNd

>  <s_glide_docking_method>  (1) 
confgen

>  <s_i_glide_gridfile>  (1) 
gpcr_drd2_6luq_protein_autoprepared_prepared

>  <s_lp_Force_Field>  (1) 
S-OPLS

>  <s_lp_Variant>  (1) 
DiffSBDD_90-7

>  <s_m_source_file>  (1) 
generated_generic_title2_ligand_DiffSBDD_2026-06-23_prepared.sdf

>  <GenAI_Model>  (1) 
DiffSBDD

>  <Protein>  (1) 
generic_title2

$$$$
DiffSBDD_90
     RDKit          3D

  0  0  0  0  0  0  0  0  0  0999 V3000
M  V30 BEGIN CTAB
M  V30 COUNTS 80 84 0 0 1
M  V30 BEGIN ATOM
M  V30 1 C 7.668620 7.828344 -12.527351 0
M  V30 2 C 8.722062 6.734786 -12.319228 0 CFG=1
M  V30 3 C 10.465709 7.726770 -9.272878 0
M  V30 4 C 10.139977 4.671228 -16.297271 0 CFG=2
M  V30 5 C 11.096024 7.190983 -11.296894 0
M  V30 6 C 10.631663 8.157441 -7.904870 0 CFG=2
M  V30 7 C 6.647026 4.832949 -14.570220 0 CFG=2
M  V30 8 O 6.860864 7.600631 -14.784967 0
M  V30 9 C 6.646933 7.175518 -13.468478 0 CFG=1
M  V30 10 C 10.490767 6.144948 -18.409721 0
M  V30 11 O 13.006259 7.397064 -15.949356 0
M  V30 12 C 9.721230 7.074771 -11.255748 0
M  V30 13 C 7.496513 4.591520 -11.251252 0 CFG=2
M  V30 14 O 14.721829 6.123846 -16.623123 0 CHG=-1
M  V30 15 O 9.806535 3.593627 -17.153014 0
M  V30 16 C 7.615207 4.854615 -15.832212 0 CFG=2
M  V30 17 N 9.016059 5.172972 -15.467602 0
M  V30 18 N 6.884738 5.738101 -13.416961 0
M  V30 19 C 14.074138 3.651123 -17.678073 0
M  V30 20 C 7.164766 5.665034 -17.086015 0
M  V30 21 O 8.192104 4.790145 -10.040190 0
M  V30 22 O 5.796352 5.590245 -17.412739 0
M  V30 23 O 7.743400 1.675633 -12.785109 0
M  V30 24 C 8.389221 3.986663 -12.313795 0 CFG=1
M  V30 25 C 13.505271 6.388506 -16.495002 0
M  V30 26 C 6.545434 3.396454 -14.002921 0
M  V30 27 N 11.469823 7.621758 -10.052130 0
M  V30 28 O 14.753056 3.506476 -18.692507 0
M  V30 29 C 12.225958 8.258685 -8.025435 0
M  V30 30 N 9.375411 7.413611 -9.961096 0 CHG=1
M  V30 31 C 10.994493 5.763252 -17.001629 0 CFG=2
M  V30 32 O 11.375193 8.112864 -5.149464 0
M  V30 33 O 10.269380 7.162892 -6.964072 0
M  V30 34 C 10.174473 7.617365 -5.654270 0
M  V30 35 C 14.603622 3.168940 -16.323134 0
M  V30 36 C 12.488866 5.350956 -17.082169 0
M  V30 37 C 7.861554 2.968803 -13.333174 0 CFG=2
M  V30 38 C 11.417138 9.520853 -4.951632 0
M  V30 39 N 12.805684 4.211465 -17.622603 0
M  V30 40 C 12.737818 7.983836 -9.514930 0
M  V30 41 C 7.926584 5.436866 -12.437449 0 CFG=1
M  V30 42 H 7.177306 8.062630 -11.585764 0
M  V30 43 H 8.093769 8.756986 -12.908981 0
M  V30 44 H 9.355779 6.718633 -13.185016 0
M  V30 45 H 10.829410 4.227535 -15.585364 0
M  V30 46 H 11.801056 7.042484 -12.104339 0
M  V30 47 H 10.115279 9.109393 -7.788243 0
M  V30 48 H 5.651214 5.064273 -14.944475 0
M  V30 49 H 6.025079 7.825633 -15.165296 0
M  V30 50 H 5.624230 7.410204 -13.172000 0
M  V30 51 H 11.135577 6.901423 -18.858330 0
M  V30 52 H 10.476640 5.286198 -19.079843 0
M  V30 53 H 9.490193 6.567077 -18.384927 0
M  V30 54 H 6.456480 4.284360 -11.143713 0
M  V30 55 H 10.618246 3.193202 -17.431672 0
M  V30 56 H 7.586646 3.825879 -16.188948 0
M  V30 57 H 9.164336 4.883223 -14.508136 0
M  V30 58 H 7.711300 5.302534 -17.955391 0
M  V30 59 H 7.375233 6.721873 -17.012729 0
M  V30 60 H 9.117847 4.705935 -10.202146 0
M  V30 61 H 5.662955 6.035369 -18.235657 0
M  V30 62 H 8.527304 1.470774 -12.289165 0
M  V30 63 H 9.434008 3.835427 -12.047935 0
M  V30 64 H 5.725703 3.343344 -13.284736 0
M  V30 65 H 6.295887 2.686577 -14.790355 0
M  V30 66 H 12.614882 9.190373 -7.623070 0
M  V30 67 H 12.635191 7.467514 -7.403465 0
M  V30 68 H 10.888726 6.647388 -16.385298 0
M  V30 69 H 9.365190 8.341529 -5.585258 0
M  V30 70 H 9.912376 6.753166 -5.045027 0
M  V30 71 H 15.685171 3.291574 -16.279307 0
M  V30 72 H 14.183515 3.732834 -15.491994 0
M  V30 73 H 14.370405 2.114039 -16.179065 0
M  V30 74 H 8.575389 2.882777 -14.138417 0
M  V30 75 H 12.436244 9.827640 -4.715470 0
M  V30 76 H 11.105273 10.077440 -5.836184 0
M  V30 77 H 10.783774 9.818912 -4.117176 0
M  V30 78 H 13.470845 7.190345 -9.585096 0
M  V30 79 H 13.083528 8.881689 -10.022265 0
M  V30 80 H 8.408104 7.452891 -9.592135 0
M  V30 END ATOM
M  V30 BEGIN BOND
M  V30 1 1 2 1
M  V30 2 1 6 3
M  V30 3 1 9 1
M  V30 4 1 9 8
M  V30 5 1 12 2
M  V30 6 2 12 5
M  V30 7 1 15 4
M  V30 8 1 16 7
M  V30 9 1 17 4
M  V30 10 1 17 16
M  V30 11 1 18 7
M  V30 12 1 18 9
M  V30 13 1 20 16
M  V30 14 1 21 13
M  V30 15 1 22 20
M  V30 16 1 24 13
M  V30 17 2 25 11
M  V30 18 1 25 14
M  V30 19 1 26 7
M  V30 20 1 27 3
M  V30 21 1 27 5
M  V30 22 2 28 19
M  V30 23 1 29 6
M  V30 24 2 30 3
M  V30 25 1 30 12
M  V30 26 1 31 4
M  V30 27 1 31 10
M  V30 28 1 33 6
M  V30 29 1 34 32
M  V30 30 1 34 33
M  V30 31 1 35 19
M  V30 32 1 36 25
M  V30 33 1 36 31
M  V30 34 1 37 23
M  V30 35 1 37 24
M  V30 36 1 37 26
M  V30 37 1 38 32
M  V30 38 1 39 19
M  V30 39 2 39 36
M  V30 40 1 40 27
M  V30 41 1 40 29
M  V30 42 1 41 2
M  V30 43 1 41 13
M  V30 44 1 41 18 CFG=3
M  V30 45 1 41 24
M  V30 46 1 42 1
M  V30 47 1 43 1
M  V30 48 1 2 44 CFG=3
M  V30 49 1 4 45 CFG=1
M  V30 50 1 46 5
M  V30 51 1 6 47 CFG=1
M  V30 52 1 7 48 CFG=3
M  V30 53 1 49 8
M  V30 54 1 9 50 CFG=1
M  V30 55 1 51 10
M  V30 56 1 52 10
M  V30 57 1 53 10
M  V30 58 1 13 54 CFG=1
M  V30 59 1 55 15
M  V30 60 1 16 56 CFG=3
M  V30 61 1 57 17
M  V30 62 1 58 20
M  V30 63 1 59 20
M  V30 64 1 60 21
M  V30 65 1 61 22
M  V30 66 1 62 23
M  V30 67 1 24 63 CFG=1
M  V30 68 1 64 26
M  V30 69 1 65 26
M  V30 70 1 66 29
M  V30 71 1 67 29
M  V30 72 1 31 68 CFG=1
M  V30 73 1 69 34
M  V30 74 1 70 34
M  V30 75 1 71 35
M  V30 76 1 72 35
M  V30 77 1 73 35
M  V30 78 1 37 74 CFG=3
M  V30 79 1 75 38
M  V30 80 1 76 38
M  V30 81 1 77 38
M  V30 82 1 78 40
M  V30 83 1 79 40
M  V30 84 1 80 30
M  V30 END BOND
M  V30 END CTAB
M  END
>  <i_epik_Tot_Q>  (1) 
0

>  <i_epik_Tot_abs_Q>  (1) 
2

>  <i_i_glide_confnum>  (1) 
2180

>  <i_i_glide_lignum>  (1) 
173

>  <i_i_glide_posenum>  (1) 
43

>  <i_i_glide_rotatable_bonds>  (1) 
17

>  <i_lp_mmshare_version>  (1) 
72125

>  <i_m_source_file_index>  (1) 
91

>  <i_f3d_flags>  (1) 
0

>  <num_sample>  (1) 
100

>  <b_lp_Chiralities_Consistent>  (1) 
1

>  <r_epik_Charging_Adjusted_Penalty>  (1) 
1.2730775069092737

>  <r_epik_Ionization_Penalty>  (1) 
0.33079184029548347

>  <r_epik_Ionization_Penalty_Charging>  (1) 
4.3976256739559524e-06

>  <r_epik_Ionization_Penalty_Neutral>  (1) 
0.33078744266980953

>  <r_epik_State_Penalty>  (1) 
1.2730731092835996

>  <r_glide_ring_energy>  (1) 
0

>  <r_i_docking_score>  (1) 
-4.1530024661781564

>  <r_i_glide_ecoul>  (1) 
-9.0341797058511091

>  <r_i_glide_eff_state_penalty>  (1) 
1.2730731092835996

>  <r_i_glide_einternal>  (1) 
19.426859293712148

>  <r_i_glide_emodel>  (1) 
-45.041541707884164

>  <r_i_glide_emodel_strain>  (1) 
5.2408702251651107

>  <r_i_glide_energy>  (1) 
-46.581615657736201

>  <r_i_glide_erotb>  (1) 
0.57888693115673628

>  <r_i_glide_esite>  (1) 
-0.13456117050343314

>  <r_i_glide_evdw>  (1) 
-37.547435951885092

>  <r_i_glide_gscore>  (1) 
-5.4260755754617556

>  <r_i_glide_gscore_strain>  (1) 
0.31021755629127767

>  <r_i_glide_hbond>  (1) 
-0.43967941197777705

>  <r_i_glide_ligand_efficiency>  (1) 
-0.10129274307751601

>  <r_i_glide_ligand_efficiency_ln>  (1) 
-0.88107329375827337

>  <r_i_glide_ligand_efficiency_sa>  (1) 
-0.34927938300554923

>  <r_i_glide_lipo>  (1) 
-1.717937855826273

>  <r_i_glide_metal>  (1) 
-0

>  <r_i_glide_rewards>  (1) 
-0.79050287113036499

>  <r_lp_Energy>  (1) 
68.250592999999995

>  <s_epik_Chemistry_Notes>  (1) 
This compound has an imine and may undergo hydrolysis. This compound contains an acetal/aminal-like group ( X-CH(R)-Y where X, Y are N, S, or O) that may be acid/base labile, releasing an aldehyde.

>  <s_epik_cmdline>  (1) 
J2VwaWtfcHl0aG9uJywgJy1waHQnLCAnMS4wJywgJy1waCcsICc3LjQnLCAnLXRuJywgJzgnLCAnLW1hJywgJzUwMCcsICctaW1hZScsICc8aW5maWxlLm1hZT4nLCAnLW9tYWUnLCAnPG91dGZpbGUubWFlPic=

>  <s_epik_input>  (1) 
W0NIM11PW0NIMl1PW0NASF0xW0NIMl1bQ0gyXW4oYzEyKVtjSF1jKG4yKVtDQEBIXTNbQ0gyXVtDQEBIXShbT0hdKU4oW0NAQF0zNDUpW0NASF0oW0NIMl1bQ0BIXShbT0hdKVtDQEBIXTVbQ0BIXTRbT0hdKVtDQEBIXShbQ0gyXVtPSF0pW05IXVtDQEBIXShbT0hdKVtDQEhdKFtDSDNdKUMoXEMoPU8pW09IXSk9TlxDKD1PKVtDSDNd

>  <s_glide_docking_method>  (1) 
confgen

>  <s_i_glide_gridfile>  (1) 
gpcr_drd2_6luq_protein_autoprepared_prepared

>  <s_lp_Force_Field>  (1) 
S-OPLS

>  <s_lp_Variant>  (1) 
DiffSBDD_90-8

>  <s_m_source_file>  (1) 
generated_generic_title2_ligand_DiffSBDD_2026-06-23_prepared.sdf

>  <GenAI_Model>  (1) 
DiffSBDD

>  <Protein>  (1) 
generic_title2

$$$$
DiffSBDD_43
     RDKit          3D

  0  0  0  0  0  0  0  0  0  0999 V3000
M  V30 BEGIN CTAB
M  V30 COUNTS 73 80 0 0 1
M  V30 BEGIN ATOM
M  V30 1 C 7.803499 5.597086 -13.405080 0 CFG=1
M  V30 2 C 6.899708 4.542004 -12.818024 0 CFG=2
M  V30 3 C 8.781540 4.865113 -11.259941 0 CFG=1
M  V30 4 C 10.833862 6.246540 -7.114614 0
M  V30 5 C 8.731294 4.728417 -17.158059 0
M  V30 6 C 7.407262 5.103549 -17.816484 0
M  V30 7 C 9.153315 5.422741 -12.657751 0
M  V30 8 S 5.352864 6.836077 -23.012299 0
M  V30 9 C 7.276786 5.564625 -21.373862 0 CFG=1
M  V30 10 C 7.056809 6.563847 -22.497668 0 CFG=1
M  V30 11 C 9.074609 8.131271 -7.451532 0
M  V30 12 C 9.693837 5.518375 -21.910375 0
M  V30 13 C 8.574916 5.994559 -10.223706 0
M  V30 14 C 8.667130 5.736499 -20.799907 0 CFG=2
M  V30 15 C 6.179435 8.753183 -21.183536 0
M  V30 16 C 9.780128 7.754275 -8.740748 0 CFG=1
M  V30 17 N 7.316526 4.858981 -19.193395 0
M  V30 18 C 10.508414 7.684109 -7.425980 0 CFG=2
M  V30 19 O 8.027446 6.363328 -23.524635 0
M  V30 20 C 6.376472 5.593678 -17.110127 0
M  V30 21 C 10.058721 5.423639 -8.164537 0
M  V30 22 C 5.761785 7.235247 -15.313088 0
M  V30 23 C 9.377687 6.501000 -23.064117 0
M  V30 24 C 6.431994 5.556972 -20.113621 0
M  V30 25 C 7.820497 5.660308 -14.961211 0 CFG=1
M  V30 26 C 8.576847 4.501166 -15.645274 0
M  V30 27 C 6.614529 8.019197 -22.437011 0 CFG=2
M  V30 28 C 7.489779 4.105437 -11.515574 0 CFG=2
M  V30 29 C 7.325042 3.104150 -12.644428 0
M  V30 30 F 6.575339 8.244727 -15.585681 0
M  V30 31 O 8.656225 4.814938 -19.718454 0
M  V30 32 F 4.669645 7.410525 -16.057246 0
M  V30 33 F 5.405529 7.299272 -14.034195 0
M  V30 34 C 9.806100 6.369486 -9.362347 0 CFG=1
M  V30 35 C 6.409693 5.860884 -15.608149 0 CFG=2
M  V30 36 H 7.415642 6.550951 -13.050354 0
M  V30 37 H 5.833251 4.755942 -12.834072 0
M  V30 38 H 9.534387 4.164043 -10.898243 0
M  V30 39 H 10.533435 6.000797 -6.095198 0
M  V30 40 H 11.907629 6.096288 -7.185191 0
M  V30 41 H 9.148548 3.824542 -17.602988 0
M  V30 42 H 9.439603 5.538775 -17.335022 0
M  V30 43 H 9.779667 4.680174 -13.146511 0
M  V30 44 H 9.729842 6.347540 -12.612132 0
M  V30 45 H 7.205794 4.570735 -21.820835 0
M  V30 46 H 8.368786 7.440342 -7.001989 0
M  V30 47 H 8.861657 9.184174 -7.292994 0
M  V30 48 H 10.702806 5.678016 -21.529378 0
M  V30 49 H 9.645673 4.490520 -22.272033 0
M  V30 50 H 8.221942 6.862478 -10.784008 0
M  V30 51 H 7.766980 5.727388 -9.541814 0
M  V30 52 H 8.776404 6.741914 -20.389165 0
M  V30 53 H 7.005050 8.806047 -20.475131 0
M  V30 54 H 5.881456 9.769576 -21.439312 0
M  V30 55 H 5.329632 8.269956 -20.705225 0
M  V30 56 H 10.009457 8.574594 -9.418254 0
M  V30 57 H 11.271285 8.427451 -7.202330 0
M  V30 58 H 5.449821 5.820504 -17.615452 0
M  V30 59 H 9.101994 5.129291 -7.731540 0
M  V30 60 H 10.572310 4.505761 -8.438716 0
M  V30 61 H 9.540758 7.529901 -22.740158 0
M  V30 62 H 10.055261 6.325628 -23.899311 0
M  V30 63 H 5.482073 5.037206 -20.240700 0
M  V30 64 H 6.246710 6.558692 -19.735181 0
M  V30 65 H 8.392168 6.547872 -15.185319 0
M  V30 66 H 8.057075 3.559148 -15.467846 0
M  V30 67 H 9.579092 4.390686 -15.237747 0
M  V30 68 H 6.914310 8.658966 -23.265466 0
M  V30 69 H 6.823400 3.988231 -10.662898 0
M  V30 70 H 8.225397 2.761210 -13.149396 0
M  V30 71 H 6.539131 2.358159 -12.542915 0
M  V30 72 H 10.675577 6.390628 -10.010805 0
M  V30 73 H 5.743931 5.104220 -15.197020 0
M  V30 END ATOM
M  V30 BEGIN BOND
M  V30 1 1 2 1
M  V30 2 1 6 5
M  V30 3 1 7 1
M  V30 4 1 7 3
M  V30 5 1 10 8
M  V30 6 1 10 9
M  V30 7 1 13 3
M  V30 8 1 14 9
M  V30 9 1 14 12
M  V30 10 1 16 11
M  V30 11 1 17 6
M  V30 12 1 18 4
M  V30 13 1 18 11
M  V30 14 1 18 16
M  V30 15 1 10 19 CFG=3
M  V30 16 2 20 6
M  V30 17 1 21 4
M  V30 18 1 23 12
M  V30 19 1 23 19
M  V30 20 1 24 9
M  V30 21 1 24 17
M  V30 22 1 25 1
M  V30 23 1 26 5
M  V30 24 1 26 25
M  V30 25 1 27 8
M  V30 26 1 27 10
M  V30 27 1 27 15
M  V30 28 1 28 2
M  V30 29 1 28 3
M  V30 30 1 29 2
M  V30 31 1 29 28
M  V30 32 1 30 22
M  V30 33 1 31 14
M  V30 34 1 31 17
M  V30 35 1 32 22
M  V30 36 1 33 22
M  V30 37 1 34 13
M  V30 38 1 34 16
M  V30 39 1 34 21
M  V30 40 1 35 20
M  V30 41 1 35 22
M  V30 42 1 35 25
M  V30 43 1 1 36 CFG=1
M  V30 44 1 2 37 CFG=1
M  V30 45 1 3 38 CFG=1
M  V30 46 1 39 4
M  V30 47 1 40 4
M  V30 48 1 41 5
M  V30 49 1 42 5
M  V30 50 1 43 7
M  V30 51 1 44 7
M  V30 52 1 9 45 CFG=3
M  V30 53 1 46 11
M  V30 54 1 47 11
M  V30 55 1 48 12
M  V30 56 1 49 12
M  V30 57 1 50 13
M  V30 58 1 51 13
M  V30 59 1 14 52 CFG=1
M  V30 60 1 53 15
M  V30 61 1 54 15
M  V30 62 1 55 15
M  V30 63 1 16 56 CFG=3
M  V30 64 1 18 57 CFG=3
M  V30 65 1 58 20
M  V30 66 1 59 21
M  V30 67 1 60 21
M  V30 68 1 61 23
M  V30 69 1 62 23
M  V30 70 1 63 24
M  V30 71 1 64 24
M  V30 72 1 25 65 CFG=1
M  V30 73 1 66 26
M  V30 74 1 67 26
M  V30 75 1 27 68 CFG=3
M  V30 76 1 28 69 CFG=1
M  V30 77 1 70 29
M  V30 78 1 71 29
M  V30 79 1 34 72 CFG=3
M  V30 80 1 35 73 CFG=1
M  V30 END BOND
M  V30 END CTAB
M  END
>  <i_epik_Tot_Q>  (1) 
0

>  <i_epik_Tot_abs_Q>  (1) 
0

>  <i_i_glide_confnum>  (1) 
327

>  <i_i_glide_lignum>  (1) 
69

>  <i_i_glide_posenum>  (1) 
377

>  <i_i_glide_rotatable_bonds>  (1) 
5

>  <i_lp_mmshare_version>  (1) 
72125

>  <i_m_source_file_index>  (1) 
44

>  <i_f3d_flags>  (1) 
0

>  <num_sample>  (1) 
100

>  <b_lp_Chiralities_Consistent>  (1) 
1

>  <r_epik_Charging_Adjusted_Penalty>  (1) 
0

>  <r_epik_Ionization_Penalty>  (1) 
0.0012510015798316548

>  <r_epik_Ionization_Penalty_Charging>  (1) 
0

>  <r_epik_Ionization_Penalty_Neutral>  (1) 
0.0012510015798316548

>  <r_epik_State_Penalty>  (1) 
-0

>  <r_glide_ring_energy>  (1) 
0

>  <r_i_docking_score>  (1) 
-4.1496378521737061

>  <r_i_glide_ecoul>  (1) 
0.27310853894197284

>  <r_i_glide_eff_state_penalty>  (1) 
-0

>  <r_i_glide_einternal>  (1) 
6.1364310389493504

>  <r_i_glide_emodel>  (1) 
-24.514146894888782

>  <r_i_glide_emodel_strain>  (1) 
0.38428174200230103

>  <r_i_glide_energy>  (1) 
-21.874222199880752

>  <r_i_glide_erotb>  (1) 
0.31537474361301371

>  <r_i_glide_esite>  (1) 
0

>  <r_i_glide_evdw>  (1) 
-22.147330738822724

>  <r_i_glide_gscore>  (1) 
-4.1496378521737061

>  <r_i_glide_gscore_strain>  (1) 
0

>  <r_i_glide_hbond>  (1) 
0

>  <r_i_glide_ligand_efficiency>  (1) 
-0.11856108149067732

>  <r_i_glide_ligand_efficiency_ln>  (1) 
-0.91093760480224284

>  <r_i_glide_ligand_efficiency_sa>  (1) 
-0.38782115936367861

>  <r_i_glide_lipo>  (1) 
-2.0261338584420447

>  <r_i_glide_metal>  (1) 
-0

>  <r_i_glide_rewards>  (1) 
-1.372478481244835

>  <r_lp_Energy>  (1) 
38.603110000000001

>  <r_lp_tautomer_probability>  (1) 
1

>  <s_epik_Chemistry_Notes>  (1) 
This compound has a N-S or N-O group and may undergo hydrolysis at high or low pH.

>  <s_epik_cmdline>  (1) 
J2VwaWtfcHl0aG9uJywgJy1waHQnLCAnMS4wJywgJy1waCcsICc3LjQnLCAnLXRuJywgJzgnLCAnLW1hJywgJzUwMCcsICctaW1hZScsICc8aW5maWxlLm1hZT4nLCAnLW9tYWUnLCAnPG91dGZpbGUubWFlPic=

>  <s_epik_input>  (1) 
W0NIMl0xW0NASF0oW0NASF0xMilbQ0gyXVtDSDJdW0NASF0yW0NIMl1bQ0BASF0oW0NAQEhdKFtDQEBIXTM0KVtDSDJdNClbQ0gyXVtDQEhdM1tDQEBIXShbQ0gyXVtDSDJdNSlbQ0BASF0oQyhGKShGKUYpW0NIXT1DNU4oW0NIMl02KU9bQ0BASF0oW0NIMl1bQ0gyXU83KVtDQEBIXTZbQ0BAXTc4U1tDQEhdOFtDSDNd

>  <s_glide_docking_method>  (1) 
confgen

>  <s_i_glide_gridfile>  (1) 
gpcr_drd2_6luq_protein_autoprepared_prepared

>  <s_lp_Force_Field>  (1) 
S-OPLS

>  <s_lp_Variant>  (1) 
DiffSBDD_43-1

>  <s_m_source_file>  (1) 
generated_generic_title2_ligand_DiffSBDD_2026-06-23_prepared.sdf

>  <GenAI_Model>  (1) 
DiffSBDD

>  <Protein>  (1) 
generic_title2

$$$$
DiffSBDD_60
     RDKit          3D

  0  0  0  0  0  0  0  0  0  0999 V3000
M  V30 BEGIN CTAB
M  V30 COUNTS 71 74 0 0 1
M  V30 BEGIN ATOM
M  V30 1 C 8.314705 5.513433 -7.603206 0
M  V30 2 C 11.487300 7.463885 -4.385410 0
M  V30 3 C 7.355348 1.312331 -14.334875 0 CFG=1
M  V30 4 C 9.072692 5.280230 -12.112304 0
M  V30 5 C 11.217596 6.389900 -3.517704 0
M  V30 6 O 6.667896 5.896314 -12.358910 0
M  V30 7 C 10.919863 7.511082 -5.688071 0
M  V30 8 C 11.755073 6.390234 -2.219410 0
M  V30 9 N 10.049671 6.440824 -6.097718 0
M  V30 10 C 8.530540 1.166498 -16.673215 0
M  V30 11 C 12.594476 9.590329 -4.764538 0
M  V30 12 C 11.866795 8.345221 -10.485575 0
M  V30 13 S 5.771344 0.791915 -13.586508 0
M  V30 14 C 8.435000 0.631732 -13.468753 0
M  V30 15 C 11.205470 8.646854 -6.497958 0
M  V30 16 O 8.928027 0.127998 -17.549341 0
M  V30 17 C 12.318131 8.514991 -3.939802 0
M  V30 18 C 7.295644 3.562029 -12.913994 0
M  V30 19 C 7.154742 6.187279 -13.659963 0 CFG=2
M  V30 20 C 8.917319 6.070818 -10.781377 0
M  V30 21 O 6.175656 1.074781 -16.483412 0
M  V30 22 C 6.126498 5.988007 -14.723319 0
M  V30 23 O 9.375403 8.187262 -8.887563 0
M  V30 24 C 12.859975 8.492013 -2.657051 0
M  V30 25 C 11.117516 7.102642 -10.939647 0 CFG=2
M  V30 26 C 7.727666 5.040186 -12.824720 0 CFG=2
M  V30 27 C 9.718258 6.141043 -7.525290 0 CFG=2
M  V30 28 O 6.437359 5.937235 -15.911353 0
M  V30 29 C 7.353656 0.720476 -15.785187 0 CFG=2
M  V30 30 C 12.575303 7.442554 -1.797857 0
M  V30 31 C 12.035118 9.666203 -6.031465 0
M  V30 32 O 10.571660 8.388883 -11.142417 0
M  V30 33 C 10.115028 6.997961 -8.735578 0 CFG=1
M  V30 34 C 7.486708 2.873021 -14.293715 0
M  V30 35 N 10.173224 6.390078 -10.071153 0
M  V30 36 H 8.369086 4.464474 -7.889962 0
M  V30 37 H 7.775066 5.567084 -6.659854 0
M  V30 38 H 7.683929 5.990560 -8.339706 0
M  V30 39 H 9.588701 4.333022 -11.933138 0
M  V30 40 H 9.701846 5.831343 -12.808118 0
M  V30 41 H 10.580093 5.590687 -3.831596 0
M  V30 42 H 11.532105 5.589113 -1.544833 0
M  V30 43 H 9.883392 5.697084 -5.435596 0
M  V30 44 H 9.379865 1.420203 -16.054395 0
M  V30 45 H 8.294945 2.067529 -17.242432 0
M  V30 46 H 13.226512 10.375682 -4.409050 0
M  V30 47 H 11.852217 8.781832 -9.495340 0
M  V30 48 H 12.738262 8.613329 -11.077330 0
M  V30 49 H 5.989389 -0.528716 -13.630818 0
M  V30 50 H 9.368944 1.188882 -13.459968 0
M  V30 51 H 8.127689 0.544680 -12.424516 0
M  V30 52 H 8.662114 -0.370287 -13.836493 0
M  V30 53 H 10.796731 8.769075 -7.435028 0
M  V30 54 H 8.970605 -0.682092 -17.065580 0
M  V30 55 H 6.245982 3.493460 -12.623474 0
M  V30 56 H 7.843242 3.007169 -12.156853 0
M  V30 57 H 7.738788 7.101590 -13.721945 0
M  V30 58 H 8.384772 7.003662 -10.970813 0
M  V30 59 H 8.270987 5.455912 -10.164720 0
M  V30 60 H 5.440119 0.772500 -15.971641 0
M  V30 61 H 5.097627 5.896883 -14.374887 0
M  V30 62 H 8.448909 7.990342 -9.087609 0
M  V30 63 H 13.490012 9.295554 -2.327196 0
M  V30 64 H 11.486958 6.642230 -11.853308 0
M  V30 65 H 10.367773 5.276206 -7.666907 0
M  V30 66 H 7.344836 -0.370858 -15.715777 0
M  V30 67 H 12.991718 7.445095 -0.803880 0
M  V30 68 H 12.227923 10.522530 -6.653626 0
M  V30 69 H 11.161912 7.159739 -8.506122 0
M  V30 70 H 8.467560 3.163446 -14.667531 0
M  V30 71 H 6.770504 3.290443 -14.997869 0
M  V30 END ATOM
M  V30 BEGIN BOND
M  V30 1 2 5 2
M  V30 2 1 7 2
M  V30 3 1 8 5
M  V30 4 1 9 7
M  V30 5 1 3 13 CFG=1
M  V30 6 1 14 3
M  V30 7 2 15 7
M  V30 8 1 16 10
M  V30 9 1 17 2
M  V30 10 1 17 11
M  V30 11 1 19 6
M  V30 12 1 20 4
M  V30 13 1 22 19
M  V30 14 2 24 17
M  V30 15 1 25 12
M  V30 16 1 26 4 CFG=1
M  V30 17 1 26 6
M  V30 18 1 26 18
M  V30 19 1 26 19
M  V30 20 1 27 1
M  V30 21 1 27 9
M  V30 22 2 28 22
M  V30 23 1 29 3
M  V30 24 1 29 10
M  V30 25 1 29 21
M  V30 26 2 30 8
M  V30 27 1 30 24
M  V30 28 2 31 11
M  V30 29 1 31 15
M  V30 30 1 32 12
M  V30 31 1 32 25
M  V30 32 1 33 23
M  V30 33 1 33 27
M  V30 34 1 34 3
M  V30 35 1 34 18
M  V30 36 1 35 20
M  V30 37 1 35 25
M  V30 38 1 35 33
M  V30 39 1 36 1
M  V30 40 1 37 1
M  V30 41 1 38 1
M  V30 42 1 39 4
M  V30 43 1 40 4
M  V30 44 1 41 5
M  V30 45 1 42 8
M  V30 46 1 43 9
M  V30 47 1 44 10
M  V30 48 1 45 10
M  V30 49 1 46 11
M  V30 50 1 47 12
M  V30 51 1 48 12
M  V30 52 1 49 13
M  V30 53 1 50 14
M  V30 54 1 51 14
M  V30 55 1 52 14
M  V30 56 1 53 15
M  V30 57 1 54 16
M  V30 58 1 55 18
M  V30 59 1 56 18
M  V30 60 1 19 57 CFG=1
M  V30 61 1 58 20
M  V30 62 1 59 20
M  V30 63 1 60 21
M  V30 64 1 61 22
M  V30 65 1 62 23
M  V30 66 1 63 24
M  V30 67 1 25 64 CFG=3
M  V30 68 1 27 65 CFG=3
M  V30 69 1 29 66 CFG=1
M  V30 70 1 67 30
M  V30 71 1 68 31
M  V30 72 1 33 69 CFG=1
M  V30 73 1 70 34
M  V30 74 1 71 34
M  V30 END BOND
M  V30 END CTAB
M  END
>  <i_epik_Tot_Q>  (1) 
0

>  <i_epik_Tot_abs_Q>  (1) 
0

>  <i_i_glide_confnum>  (1) 
4116

>  <i_i_glide_lignum>  (1) 
95

>  <i_i_glide_posenum>  (1) 
393

>  <i_i_glide_rotatable_bonds>  (1) 
18

>  <i_lp_mmshare_version>  (1) 
72125

>  <i_m_source_file_index>  (1) 
61

>  <i_f3d_flags>  (1) 
0

>  <num_sample>  (1) 
100

>  <b_lp_Chiralities_Consistent>  (1) 
1

>  <r_epik_Charging_Adjusted_Penalty>  (1) 
0

>  <r_epik_Ionization_Penalty>  (1) 
0.014434527225192804

>  <r_epik_Ionization_Penalty_Charging>  (1) 
0

>  <r_epik_Ionization_Penalty_Neutral>  (1) 
0.014434527225192804

>  <r_epik_State_Penalty>  (1) 
-0

>  <r_glide_ring_energy>  (1) 
0

>  <r_i_docking_score>  (1) 
-4.1487531929992212

>  <r_i_glide_ecoul>  (1) 
-9.214961839173089

>  <r_i_glide_eff_state_penalty>  (1) 
-0

>  <r_i_glide_einternal>  (1) 
74.35003634345496

>  <r_i_glide_emodel>  (1) 
16.492339451265394

>  <r_i_glide_emodel_strain>  (1) 
13.1111919597286

>  <r_i_glide_energy>  (1) 
-24.698702098063162

>  <r_i_glide_erotb>  (1) 
0.88320893883716522

>  <r_i_glide_esite>  (1) 
-0.061464417020547224

>  <r_i_glide_evdw>  (1) 
-15.483740258890073

>  <r_i_glide_gscore>  (1) 
-4.1487531929992212

>  <r_i_glide_gscore_strain>  (1) 
2.2777979899321501

>  <r_i_glide_hbond>  (1) 
-0.20910183489115788

>  <r_i_glide_ligand_efficiency>  (1) 
-0.11853580551426346

>  <r_i_glide_ligand_efficiency_ln>  (1) 
-0.91074340247949093

>  <r_i_glide_ligand_efficiency_sa>  (1) 
-0.38773847996877414

>  <r_i_glide_lipo>  (1) 
-3.8464627865571241

>  <r_i_glide_metal>  (1) 
-0

>  <r_i_glide_rewards>  (1) 
-1.0362997944792405

>  <r_lp_Energy>  (1) 
38.450359999999996

>  <r_lp_tautomer_probability>  (1) 
1

>  <s_epik_Chemistry_Notes>  (1) 
This compound contains an acetal/aminal-like group ( X-CH(R)-Y where X, Y are N, S, or O) that may be acid/base labile, releasing an aldehyde.

>  <s_epik_cmdline>  (1) 
J2VwaWtfcHl0aG9uJywgJy1waHQnLCAnMS4wJywgJy1waCcsICc3LjQnLCAnLXRuJywgJzgnLCAnLW1hJywgJzUwMCcsICctaW1hZScsICc8aW5maWxlLm1hZT4nLCAnLW9tYWUnLCAnPG91dGZpbGUubWFlPic=

>  <s_epik_input>  (1) 
W2NIXTFbY0hdW2NIXVtjSF1jKGMxMilbY0hdW2NIXVtjSF1jMltOSF1bQ0BASF0oW0NIM10pW0NASF0oW09IXSlOKFtDQEBIXTNbQ0gyXU8zKVtDSDJdW0NIMl1bQ0BAXTQoT1tDQEBIXTRbQ0hdPU8pW0NIMl1bQ0gyXVtDQF0oW1NIXSkoW0NIM10pW0NAQEhdKFtPSF0pW0NIMl1bT0hd

>  <s_glide_docking_method>  (1) 
confgen

>  <s_i_glide_gridfile>  (1) 
gpcr_drd2_6luq_protein_autoprepared_prepared

>  <s_lp_Force_Field>  (1) 
S-OPLS

>  <s_lp_Variant>  (1) 
DiffSBDD_60-1

>  <s_m_source_file>  (1) 
generated_generic_title2_ligand_DiffSBDD_2026-06-23_prepared.sdf

>  <GenAI_Model>  (1) 
DiffSBDD

>  <Protein>  (1) 
generic_title2

$$$$
DiffSBDD_9
     RDKit          3D

  0  0  0  0  0  0  0  0  0  0999 V3000
M  V30 BEGIN CTAB
M  V30 COUNTS 66 71 0 0 1
M  V30 BEGIN ATOM
M  V30 1 C 4.575498 7.931978 -21.053964 0
M  V30 2 O 4.905995 4.640189 -22.672942 0
M  V30 3 C 4.929289 7.615733 -19.728805 0
M  V30 4 C 9.433521 6.979509 -7.935458 0 CFG=2
M  V30 5 C 10.391099 7.762192 -5.699433 0
M  V30 6 C 6.369415 5.951966 -13.502849 0
M  V30 7 C 7.176716 5.732956 -18.057818 0 CFG=2
M  V30 8 C 7.468963 4.250205 -18.076168 0
M  V30 9 C 11.900413 9.447243 -6.608074 0
M  V30 10 O 8.275790 4.525652 -11.764822 0
M  V30 11 C 4.569626 6.930223 -22.041656 0
M  V30 12 C 9.688149 6.692903 -9.414469 0
M  V30 13 C 5.441333 6.371271 -14.678610 0
M  V30 14 O 5.775318 5.919656 -12.303927 0
M  V30 15 C 10.668833 7.498962 -7.178188 0 CFG=2
M  V30 16 N 11.148644 8.790227 -7.692774 0 CHG=1
M  V30 17 N 6.678395 6.227633 -15.637996 0 CHG=1
M  V30 18 C 8.743194 5.284716 -12.854975 0
M  V30 19 C 11.376263 8.858478 -5.292379 0
M  V30 20 C 7.775415 5.864595 -15.073735 0
M  V30 21 C 5.280183 5.285529 -20.375936 0
M  V30 22 C 7.133347 3.656095 -19.472304 0
M  V30 23 O 9.285516 4.669551 -10.677956 0
M  V30 24 C 7.614431 5.689656 -13.777127 0
M  V30 25 C 8.669491 4.816246 -8.370949 0
M  V30 26 C 5.677690 3.842180 -19.997636 0
M  V30 27 C 6.574649 6.682182 -17.037656 0 CFG=2
M  V30 28 C 5.682747 5.955118 -17.999949 0 CFG=1
M  V30 29 C 8.745686 5.543570 -9.703943 0 CFG=1
M  V30 30 C 5.281907 6.295212 -19.382779 0
M  V30 31 O 9.097497 5.725293 -7.370533 0
M  V30 32 C 4.917697 5.606890 -21.708142 0
M  V30 33 H 4.308341 8.945309 -21.313402 0
M  V30 34 H 4.726197 4.972080 -23.539672 0
M  V30 35 H 4.935412 8.389675 -18.975079 0
M  V30 36 H 8.576519 7.643968 -7.812688 0
M  V30 37 H 9.374106 8.131344 -5.585088 0
M  V30 38 H 10.481005 6.860607 -5.092152 0
M  V30 39 H 7.756283 6.271391 -18.807597 0
M  V30 40 H 6.913931 3.738689 -17.291344 0
M  V30 41 H 8.525775 4.097639 -17.855429 0
M  V30 42 H 11.775531 10.529805 -6.651210 0
M  V30 43 H 12.961191 9.219053 -6.725858 0
M  V30 44 H 4.296243 7.178482 -23.057046 0
M  V30 45 H 10.721326 6.390272 -9.565154 0
M  V30 46 H 9.495393 7.557152 -10.050347 0
M  V30 47 H 4.684435 5.634305 -14.940777 0
M  V30 48 H 5.105927 7.409066 -14.662783 0
M  V30 49 H 11.487376 6.780868 -7.260911 0
M  V30 50 H 11.710936 8.676100 -8.524673 0
M  V30 51 H 9.510957 4.714316 -13.380799 0
M  V30 52 H 9.211298 6.203127 -12.495846 0
M  V30 53 H 10.891194 9.620560 -4.681621 0
M  V30 54 H 12.189459 8.440720 -4.700870 0
M  V30 55 H 8.692543 5.748684 -15.640180 0
M  V30 56 H 7.339867 2.586062 -19.429129 0
M  V30 57 H 7.825985 4.055568 -20.214345 0
M  V30 58 H 7.677316 4.418055 -8.162993 0
M  V30 59 H 9.376252 3.990279 -8.365890 0
M  V30 60 H 4.975850 3.473111 -19.250935 0
M  V30 61 H 5.544331 3.173770 -20.847031 0
M  V30 62 H 6.577126 7.765871 -17.097016 0
M  V30 63 H 5.030908 5.193392 -17.585197 0
M  V30 64 H 7.765949 5.928550 -9.984257 0
M  V30 65 H 10.337182 9.353018 -7.906794 0
M  V30 66 H 6.428495 5.682188 -11.660583 0
M  V30 END ATOM
M  V30 BEGIN BOND
M  V30 1 1 3 1
M  V30 2 1 8 7
M  V30 3 2 11 1
M  V30 4 1 12 4
M  V30 5 1 13 6
M  V30 6 1 14 6
M  V30 7 1 15 4
M  V30 8 1 15 5
M  V30 9 1 16 9
M  V30 10 1 16 15
M  V30 11 1 17 13
M  V30 12 1 18 10
M  V30 13 1 19 5
M  V30 14 1 19 9
M  V30 15 2 20 17
M  V30 16 1 22 8
M  V30 17 1 23 10
M  V30 18 2 24 6
M  V30 19 1 24 18
M  V30 20 1 24 20
M  V30 21 1 26 21
M  V30 22 1 26 22
M  V30 23 1 27 7
M  V30 24 1 27 17
M  V30 25 1 28 7
M  V30 26 1 28 27
M  V30 27 1 29 12
M  V30 28 1 29 23
M  V30 29 1 29 25
M  V30 30 2 30 3
M  V30 31 1 30 21
M  V30 32 1 30 28
M  V30 33 1 31 4
M  V30 34 1 31 25
M  V30 35 1 32 2
M  V30 36 1 32 11
M  V30 37 2 32 21
M  V30 38 1 33 1
M  V30 39 1 34 2
M  V30 40 1 35 3
M  V30 41 1 4 36 CFG=3
M  V30 42 1 37 5
M  V30 43 1 38 5
M  V30 44 1 7 39 CFG=3
M  V30 45 1 40 8
M  V30 46 1 41 8
M  V30 47 1 42 9
M  V30 48 1 43 9
M  V30 49 1 44 11
M  V30 50 1 45 12
M  V30 51 1 46 12
M  V30 52 1 47 13
M  V30 53 1 48 13
M  V30 54 1 15 49 CFG=1
M  V30 55 1 50 16
M  V30 56 1 51 18
M  V30 57 1 52 18
M  V30 58 1 53 19
M  V30 59 1 54 19
M  V30 60 1 55 20
M  V30 61 1 56 22
M  V30 62 1 57 22
M  V30 63 1 58 25
M  V30 64 1 59 25
M  V30 65 1 60 26
M  V30 66 1 61 26
M  V30 67 1 27 62 CFG=1
M  V30 68 1 28 63 CFG=1
M  V30 69 1 29 64 CFG=3
M  V30 70 1 65 16
M  V30 71 1 66 14
M  V30 END BOND
M  V30 END CTAB
M  END
>  <i_epik_Tot_Q>  (1) 
2

>  <i_epik_Tot_abs_Q>  (1) 
2

>  <i_i_glide_confnum>  (1) 
208

>  <i_i_glide_lignum>  (1) 
17

>  <i_i_glide_posenum>  (1) 
385

>  <i_i_glide_rotatable_bonds>  (1) 
8

>  <i_lp_mmshare_version>  (1) 
72125

>  <i_m_source_file_index>  (1) 
10

>  <i_f3d_flags>  (1) 
0

>  <num_sample>  (1) 
100

>  <b_lp_Chiralities_Consistent>  (1) 
1

>  <r_epik_Charging_Adjusted_Penalty>  (1) 
1.3157260146662635

>  <r_epik_Ionization_Penalty>  (1) 
1.3160658386974122

>  <r_epik_Ionization_Penalty_Charging>  (1) 
0.0006406180093694357

>  <r_epik_Ionization_Penalty_Neutral>  (1) 
1.3154252206880428

>  <r_epik_State_Penalty>  (1) 
1.3150853966568941

>  <r_glide_ring_energy>  (1) 
0.028054261374207707

>  <r_i_docking_score>  (1) 
-4.1476912802787576

>  <r_i_glide_ecoul>  (1) 
-3.2771988213379002

>  <r_i_glide_eff_state_penalty>  (1) 
1.3150853966568941

>  <r_i_glide_einternal>  (1) 
3.4182858212864335

>  <r_i_glide_emodel>  (1) 
-47.305642102101729

>  <r_i_glide_emodel_strain>  (1) 
0.34430603335434284

>  <r_i_glide_energy>  (1) 
-37.406228800910029

>  <r_i_glide_erotb>  (1) 
0.61220542290859559

>  <r_i_glide_esite>  (1) 
0

>  <r_i_glide_evdw>  (1) 
-34.129029979572131

>  <r_i_glide_gscore>  (1) 
-5.4627766769356514

>  <r_i_glide_gscore_strain>  (1) 
0

>  <r_i_glide_hbond>  (1) 
0

>  <r_i_glide_ligand_efficiency>  (1) 
-0.12961535250871117

>  <r_i_glide_ligand_efficiency_ln>  (1) 
-0.92878113944857865

>  <r_i_glide_ligand_efficiency_sa>  (1) 
-0.41150309384711431

>  <r_i_glide_lipo>  (1) 
-2.5483644626879562

>  <r_i_glide_metal>  (1) 
-0

>  <r_i_glide_rewards>  (1) 
-1.328586314976999

>  <r_lp_Energy>  (1) 
41.799700000000001

>  <r_lp_tautomer_probability>  (1) 
0.99929914238884965

>  <s_epik_Chemistry_Notes>  (1) 
This compound has an imine and may undergo hydrolysis.

>  <s_epik_cmdline>  (1) 
J2VwaWtfcHl0aG9uJywgJy1waHQnLCAnMS4wJywgJy1waCcsICc3LjQnLCAnLXRuJywgJzgnLCAnLW1hJywgJzUwMCcsICctaW1hZScsICc8aW5maWxlLm1hZT4nLCAnLW9tYWUnLCAnPG91dGZpbGUubWFlPic=

>  <s_epik_input>  (1) 
W2NIXTFbY0hdW2NIXWMoW09IXSljKFtDSDJdW0NIMl1bQ0gyXTIpYzFbQ0BASF0oW0NASF0yMylbQ0hdM24oW2NIXWM0W09IXSlbY0hdYzRbQ0gyXU9PW0NAQEhdKFtDSDJdTzUpW0NIMl1bQ0BASF01W0NAQEhdNltDSDJdW0NIMl1bQ0gyXVtOSF02

>  <s_glide_docking_method>  (1) 
confgen

>  <s_i_glide_gridfile>  (1) 
gpcr_drd2_6luq_protein_autoprepared_prepared

>  <s_lp_Force_Field>  (1) 
S-OPLS

>  <s_lp_Variant>  (1) 
DiffSBDD_9-2

>  <s_m_source_file>  (1) 
generated_generic_title2_ligand_DiffSBDD_2026-06-23_prepared.sdf

>  <GenAI_Model>  (1) 
DiffSBDD

>  <Protein>  (1) 
generic_title2

$$$$
DiffSBDD_91
     RDKit          3D

  0  0  0  0  0  0  0  0  0  0999 V3000
M  V30 BEGIN CTAB
M  V30 COUNTS 54 54 0 0 1
M  V30 BEGIN ATOM
M  V30 1 O 11.775413 10.465654 -5.982660 0 CHG=-1
M  V30 2 C 6.326282 6.233522 -17.320105 0
M  V30 3 O 7.614390 6.941354 -14.022828 0
M  V30 4 F 6.267839 5.000027 -17.819164 0
M  V30 5 C 5.359661 7.824095 -15.592721 0
M  V30 6 C 7.310995 5.757694 -14.155065 0
M  V30 7 O 8.094015 4.834282 -10.823475 0
M  V30 8 C 11.477593 9.280446 -5.728654 0
M  V30 9 C 10.517674 8.676700 -6.751529 0 CFG=1
M  V30 10 C 10.066310 8.290475 -9.267556 0
M  V30 11 C 11.775234 8.396892 -4.811140 0
M  V30 12 C 6.021829 5.371705 -14.911720 0 CFG=2
M  V30 13 O 11.267777 6.170685 -4.319419 0
M  V30 14 N 9.775405 6.353174 -10.842069 0
M  V30 15 C 9.294765 5.053965 -12.901978 0
M  V30 16 C 12.714383 8.581741 -3.624987 0
M  V30 17 F 5.871100 7.081009 -18.243638 0
M  V30 18 C 12.005456 8.707298 -2.272925 0
M  V30 19 C 11.099565 8.621268 -8.178200 0
M  V30 20 C 5.507088 6.346927 -16.020736 0 CFG=2
M  V30 21 C 11.155896 7.169424 -5.019042 0
M  V30 22 O 10.379694 7.284125 -6.176494 0
M  V30 23 N 8.069758 4.750036 -13.643185 0
M  V30 24 C 7.697152 3.335599 -13.785717 0
M  V30 25 O 12.975405 8.790228 -1.252994 0
M  V30 26 C 9.836114 6.775030 -9.441912 0
M  V30 27 O 10.888881 6.791693 -11.601850 0
M  V30 28 O 5.005374 5.190231 -13.952552 0
M  V30 29 C 9.002344 5.408009 -11.424545 0
M  V30 30 H 7.375423 6.455210 -17.155766 0
M  V30 31 H 6.310553 8.355319 -15.636228 0
M  V30 32 H 4.675067 8.354163 -16.254952 0
M  V30 33 H 4.975418 7.918902 -14.577896 0
M  V30 34 H 9.556493 9.190202 -6.730805 0
M  V30 35 H 10.415781 8.746309 -10.191885 0
M  V30 36 H 9.118938 8.790211 -9.059895 0
M  V30 37 H 6.175410 4.417898 -15.408620 0
M  V30 38 H 9.830856 5.827048 -13.452250 0
M  V30 39 H 9.958223 4.190277 -12.901041 0
M  V30 40 H 13.382919 7.722712 -3.585022 0
M  V30 41 H 13.338067 9.459535 -3.802151 0
M  V30 42 H 11.375408 9.595243 -2.249411 0
M  V30 43 H 11.375444 7.839226 -2.075294 0
M  V30 44 H 11.947692 7.936982 -8.215560 0
M  V30 45 H 11.521368 9.590226 -8.429584 0
M  V30 46 H 4.501305 6.013148 -16.279631 0
M  V30 47 H 6.667730 3.151820 -13.475678 0
M  V30 48 H 7.829390 2.994908 -14.813112 0
M  V30 49 H 8.316786 2.697093 -13.154547 0
M  V30 50 H 13.374512 9.658880 -1.288427 0
M  V30 51 H 8.923793 6.485028 -8.918787 0
M  V30 52 H 10.631682 6.203663 -8.963918 0
M  V30 53 H 11.237610 7.497931 -11.080309 0
M  V30 54 H 4.237743 4.851254 -14.384121 0
M  V30 END ATOM
M  V30 BEGIN BOND
M  V30 1 1 4 2
M  V30 2 2 6 3
M  V30 3 1 8 1
M  V30 4 1 9 8
M  V30 5 2 11 8
M  V30 6 1 12 6
M  V30 7 1 16 11
M  V30 8 1 17 2
M  V30 9 1 18 16
M  V30 10 1 19 9
M  V30 11 1 19 10
M  V30 12 1 20 2
M  V30 13 1 20 5
M  V30 14 1 20 12
M  V30 15 1 21 11
M  V30 16 2 21 13
M  V30 17 1 22 9
M  V30 18 1 22 21
M  V30 19 1 23 6
M  V30 20 1 23 15
M  V30 21 1 24 23
M  V30 22 1 25 18
M  V30 23 1 26 10
M  V30 24 1 26 14
M  V30 25 1 27 14
M  V30 26 1 28 12
M  V30 27 2 29 7
M  V30 28 1 29 14
M  V30 29 1 29 15
M  V30 30 1 30 2
M  V30 31 1 31 5
M  V30 32 1 32 5
M  V30 33 1 33 5
M  V30 34 1 9 34 CFG=3
M  V30 35 1 35 10
M  V30 36 1 36 10
M  V30 37 1 12 37 CFG=3
M  V30 38 1 38 15
M  V30 39 1 39 15
M  V30 40 1 40 16
M  V30 41 1 41 16
M  V30 42 1 42 18
M  V30 43 1 43 18
M  V30 44 1 44 19
M  V30 45 1 45 19
M  V30 46 1 20 46 CFG=3
M  V30 47 1 47 24
M  V30 48 1 48 24
M  V30 49 1 49 24
M  V30 50 1 50 25
M  V30 51 1 51 26
M  V30 52 1 52 26
M  V30 53 1 53 27
M  V30 54 1 54 28
M  V30 END BOND
M  V30 END CTAB
M  END
>  <i_epik_Tot_Q>  (1) 
-1

>  <i_epik_Tot_abs_Q>  (1) 
1

>  <i_i_glide_confnum>  (1) 
2032

>  <i_i_glide_lignum>  (1) 
174

>  <i_i_glide_posenum>  (1) 
163

>  <i_i_glide_rotatable_bonds>  (1) 
16

>  <i_lp_mmshare_version>  (1) 
72125

>  <i_m_source_file_index>  (1) 
92

>  <i_f3d_flags>  (1) 
0

>  <num_sample>  (1) 
100

>  <b_lp_Chiralities_Consistent>  (1) 
1

>  <r_epik_Charging_Adjusted_Penalty>  (1) 
7.0624640006874639e-05

>  <r_epik_Ionization_Penalty>  (1) 
0.026986969757343576

>  <r_epik_Ionization_Penalty_Charging>  (1) 
7.0624640006874639e-05

>  <r_epik_Ionization_Penalty_Neutral>  (1) 
0.026916345117336701

>  <r_epik_State_Penalty>  (1) 
-0

>  <r_glide_ring_energy>  (1) 
0

>  <r_i_docking_score>  (1) 
-4.1473259311938442

>  <r_i_glide_ecoul>  (1) 
-2.9249381536863108

>  <r_i_glide_eff_state_penalty>  (1) 
-0

>  <r_i_glide_einternal>  (1) 
7.5973516417504285

>  <r_i_glide_emodel>  (1) 
-39.864430540990739

>  <r_i_glide_emodel_strain>  (1) 
3.7104774190612915

>  <r_i_glide_energy>  (1) 
-37.429116951050752

>  <r_i_glide_erotb>  (1) 
1.3267024169305881

>  <r_i_glide_esite>  (1) 
-0.044048321946392278

>  <r_i_glide_evdw>  (1) 
-34.504178797364439

>  <r_i_glide_gscore>  (1) 
-4.1473259311938442

>  <r_i_glide_gscore_strain>  (1) 
0

>  <r_i_glide_hbond>  (1) 
-0.32000000000000001

>  <r_i_glide_ligand_efficiency>  (1) 
-0.14301123900668428

>  <r_i_glide_ligand_efficiency_ln>  (1) 
-0.9496324711318419

>  <r_i_glide_ligand_efficiency_sa>  (1) 
-0.43937583586241635

>  <r_i_glide_lipo>  (1) 
-2.5779180634913947

>  <r_i_glide_metal>  (1) 
-0

>  <r_i_glide_rewards>  (1) 
-0.36811229976547577

>  <r_lp_Energy>  (1) 
6.6003359999999995

>  <r_lp_tautomer_probability>  (1) 
1

>  <s_epik_Chemistry_Notes>  (1) 
This compound has an ester and may undergo hydrolysis at high or low pH. This compound has a N-S or N-O group and may undergo hydrolysis at high or low pH.

>  <s_epik_cmdline>  (1) 
J2VwaWtfcHl0aG9uJywgJy1waHQnLCAnMS4wJywgJy1waCcsICc3LjQnLCAnLXRuJywgJzgnLCAnLW1hJywgJzUwMCcsICctaW1hZScsICc8aW5maWxlLm1hZT4nLCAnLW9tYWUnLCAnPG91dGZpbGUubWFlPic=

>  <s_epik_input>  (1) 
W09IXVtDSDJdW0NIMl1bQ0BASF0xQyg9TylPW0NAQEhdKEMxPU8pW0NIMl1bQ0gyXVtDSDJdTihbT0hdKUMoPU8pW0NIMl1OKFtDSDNdKUMoPU8pW0NAQEhdKFtPSF0pW0NASF0oW0NIXShGKUYpW0NIM10=

>  <s_glide_docking_method>  (1) 
confgen

>  <s_i_glide_gridfile>  (1) 
gpcr_drd2_6luq_protein_autoprepared_prepared

>  <s_lp_Force_Field>  (1) 
S-OPLS

>  <s_lp_Variant>  (1) 
DiffSBDD_91-1

>  <s_m_source_file>  (1) 
generated_generic_title2_ligand_DiffSBDD_2026-06-23_prepared.sdf

>  <GenAI_Model>  (1) 
DiffSBDD

>  <Protein>  (1) 
generic_title2

$$$$
DiffSBDD_88
     RDKit          3D

  0  0  0  0  0  0  0  0  0  0999 V3000
M  V30 BEGIN CTAB
M  V30 COUNTS 36 37 0 0 1
M  V30 BEGIN ATOM
M  V30 1 C 7.696449 5.185650 -18.382352 0 CFG=1
M  V30 2 F 8.088274 6.112453 -20.563622 0
M  V30 3 C 8.446611 4.489790 -13.647146 0
M  V30 4 C 8.495441 4.119814 -12.163380 0
M  V30 5 O 6.335108 7.190235 -14.784742 0
M  V30 6 O 7.595315 5.190230 -10.145591 0
M  V30 7 O 7.139330 4.101735 -18.866236 0 CHG=-1
M  V30 8 C 8.153512 5.419497 -11.421641 0 CFG=2
M  V30 9 C 5.491629 6.005410 -17.288920 0
M  V30 10 N 7.540678 5.638000 -13.664330 0
M  V30 11 C 7.499780 6.364083 -19.391640 0 CFG=1
M  V30 12 F 4.060228 7.502117 -18.404241 0
M  V30 13 C 5.347377 7.199012 -18.237175 0 CFG=2
M  V30 14 C 7.087947 6.212595 -14.805652 0
M  V30 15 C 5.185341 6.047912 -20.542914 0
M  V30 16 N 7.577710 5.590229 -15.954293 0
M  V30 17 C 6.974809 5.591663 -17.090884 0
M  V30 18 C 7.178027 6.149247 -12.350645 0
M  V30 19 C 6.047121 6.916982 -19.597689 0 CFG=2
M  V30 20 H 8.763397 5.185527 -18.151683 0
M  V30 21 H 8.091612 3.651820 -14.249928 0
M  V30 22 H 9.433183 4.790338 -14.004804 0
M  V30 23 H 9.450201 3.689969 -11.859093 0
M  V30 24 H 7.720769 3.374381 -11.985099 0
M  V30 25 H 7.375383 6.046783 -9.774915 0
M  V30 26 H 9.059465 6.017460 -11.311735 0
M  V30 27 H 4.973122 5.190228 -17.772617 0
M  V30 28 H 4.931483 6.149255 -16.369342 0
M  V30 29 H 8.089550 7.190900 -18.997185 0
M  V30 30 H 5.775409 8.069502 -17.748940 0
M  V30 31 H 4.942420 5.079093 -20.107297 0
M  V30 32 H 4.246504 6.543331 -20.787457 0
M  V30 33 H 5.703661 5.861164 -21.483228 0
M  V30 34 H 6.142617 5.878189 -12.136843 0
M  V30 35 H 7.278733 7.232874 -12.266324 0
M  V30 36 H 6.148705 7.877873 -20.103442 0
M  V30 END ATOM
M  V30 BEGIN BOND
M  V30 1 1 4 3
M  V30 2 1 7 1
M  V30 3 1 8 4
M  V30 4 1 8 6
M  V30 5 1 10 3
M  V30 6 1 11 1
M  V30 7 1 11 2
M  V30 8 1 13 9
M  V30 9 1 13 12
M  V30 10 2 14 5
M  V30 11 1 14 10
M  V30 12 1 16 14
M  V30 13 1 17 1
M  V30 14 1 17 9
M  V30 15 2 17 16
M  V30 16 1 18 8
M  V30 17 1 18 10
M  V30 18 1 19 11
M  V30 19 1 19 13
M  V30 20 1 19 15
M  V30 21 1 1 20 CFG=1
M  V30 22 1 21 3
M  V30 23 1 22 3
M  V30 24 1 23 4
M  V30 25 1 24 4
M  V30 26 1 25 6
M  V30 27 1 8 26 CFG=1
M  V30 28 1 27 9
M  V30 29 1 28 9
M  V30 30 1 11 29 CFG=1
M  V30 31 1 13 30 CFG=1
M  V30 32 1 31 15
M  V30 33 1 32 15
M  V30 34 1 33 15
M  V30 35 1 34 18
M  V30 36 1 35 18
M  V30 37 1 19 36 CFG=3
M  V30 END BOND
M  V30 END CTAB
M  END
>  <i_epik_Tot_Q>  (1) 
-1

>  <i_epik_Tot_abs_Q>  (1) 
1

>  <i_i_glide_confnum>  (1) 
7

>  <i_i_glide_lignum>  (1) 
163

>  <i_i_glide_posenum>  (1) 
301

>  <i_i_glide_rotatable_bonds>  (1) 
3

>  <i_lp_mmshare_version>  (1) 
72125

>  <i_m_source_file_index>  (1) 
89

>  <i_f3d_flags>  (1) 
0

>  <num_sample>  (1) 
100

>  <b_lp_Chiralities_Consistent>  (1) 
1

>  <r_epik_Charging_Adjusted_Penalty>  (1) 
1.6999520965461032

>  <r_epik_Ionization_Penalty>  (1) 
0.8499760961676609

>  <r_epik_Ionization_Penalty_Charging>  (1) 
0.84997604827305151

>  <r_epik_Ionization_Penalty_Neutral>  (1) 
4.7894609424591191e-08

>  <r_epik_State_Penalty>  (1) 
0.84997604827305173

>  <r_glide_ring_energy>  (1) 
0.068724016086395681

>  <r_i_docking_score>  (1) 
-4.1429972899192657

>  <r_i_glide_ecoul>  (1) 
-1.6708134982943936

>  <r_i_glide_eff_state_penalty>  (1) 
0.84997604827305173

>  <r_i_glide_einternal>  (1) 
1.1467574740527846

>  <r_i_glide_emodel>  (1) 
-30.005991541749367

>  <r_i_glide_emodel_strain>  (1) 
2.1417154546352251

>  <r_i_glide_energy>  (1) 
-25.681268751751087

>  <r_i_glide_erotb>  (1) 
0.4743209619600951

>  <r_i_glide_esite>  (1) 
0

>  <r_i_glide_evdw>  (1) 
-24.010455253456694

>  <r_i_glide_gscore>  (1) 
-4.9929733381923178

>  <r_i_glide_gscore_strain>  (1) 
0

>  <r_i_glide_hbond>  (1) 
-0.16

>  <r_i_glide_ligand_efficiency>  (1) 
-0.21805248894311924

>  <r_i_glide_ligand_efficiency_ln>  (1) 
-1.0503387964173263

>  <r_i_glide_ligand_efficiency_sa>  (1) 
-0.5818516210037431

>  <r_i_glide_lipo>  (1) 
-1.0787081691513598

>  <r_i_glide_metal>  (1) 
-0

>  <r_i_glide_rewards>  (1) 
-2.7774413435840595

>  <r_lp_Energy>  (1) 
28.916074999999999

>  <s_epik_Chemistry_Notes>  (1) 
This compound has an imine and may undergo hydrolysis.

>  <s_epik_cmdline>  (1) 
J2VwaWtfcHl0aG9uJywgJy1waHQnLCAnMS4wJywgJy1waCcsICc3LjQnLCAnLXRuJywgJzgnLCAnLW1hJywgJzUwMCcsICctaW1hZScsICc8aW5maWxlLm1hZT4nLCAnLW9tYWUnLCAnPG91dGZpbGUubWFlPic=

>  <s_epik_input>  (1) 
W09IXVtDQEhdMVtDQEBIXShGKVtDQEBIXShbQ0gzXSlbQ0BASF0oRilbQ0gyXUMvMT1OXEMoPU8pTihbQ0gyXTIpW0NIMl1bQ0gyXVtDQEBIXTJbT0hd

>  <s_glide_docking_method>  (1) 
confgen

>  <s_i_glide_gridfile>  (1) 
gpcr_drd2_6luq_protein_autoprepared_prepared

>  <s_lp_Force_Field>  (1) 
S-OPLS

>  <s_lp_Variant>  (1) 
DiffSBDD_88-4

>  <s_m_source_file>  (1) 
generated_generic_title2_ligand_DiffSBDD_2026-06-23_prepared.sdf

>  <GenAI_Model>  (1) 
DiffSBDD

>  <Protein>  (1) 
generic_title2

$$$$
DiffSBDD_80
     RDKit          3D

  0  0  0  0  0  0  0  0  0  0999 V3000
M  V30 BEGIN CTAB
M  V30 COUNTS 81 87 0 0 1
M  V30 BEGIN ATOM
M  V30 1 C 6.495853 4.980172 -14.311642 0
M  V30 2 C 4.907189 10.141903 -22.802625 0
M  V30 3 C 7.451024 5.968715 -18.439709 0
M  V30 4 O 3.261949 8.477662 -23.376310 0
M  V30 5 N 10.099894 7.647382 -10.297204 0 CHG=1
M  V30 6 C 9.434306 4.870181 -20.047063 0
M  V30 7 C 8.384002 5.077732 -17.866590 0
M  V30 8 C 4.152323 8.827726 -22.605827 0
M  V30 9 C 8.502342 3.376284 -16.018184 0
M  V30 10 C 8.548798 5.349538 -9.579980 0 CFG=2
M  V30 11 C 9.622683 7.669621 -8.903245 0 CFG=2
M  V30 12 C 6.084286 7.834493 -21.247387 0 CFG=2
M  V30 13 C 7.403230 5.286528 -11.886093 0 CFG=2
M  V30 14 O 7.020263 7.133850 -13.408269 0
M  V30 15 C 6.788562 9.203360 -21.353898 0
M  V30 16 C 4.546226 7.973749 -21.402104 0
M  V30 17 N 6.422607 6.624967 -17.901577 0
M  V30 18 O 5.375469 4.338432 -10.988094 0
M  V30 19 C 9.057553 7.224664 -11.261139 0
M  V30 20 C 9.390653 4.527956 -18.683040 0
M  V30 21 O 9.753822 4.985324 -11.584882 0
M  V30 22 C 6.736349 5.207580 -15.840792 0 CFG=2
M  V30 23 C 6.283487 7.798876 -15.684983 0
M  V30 24 C 8.157225 4.839760 -16.370553 0 CFG=2
M  V30 25 C 8.473767 5.761554 -20.584675 0
M  V30 26 O 10.828120 7.861819 -8.198337 0
M  V30 27 C 6.450053 7.160205 -19.939004 0
M  V30 28 C 8.666082 5.733577 -11.064445 0 CFG=1
M  V30 29 C 7.496645 6.277051 -19.696867 0
M  V30 30 N 5.694608 7.456845 -18.845391 0
M  V30 31 C 4.539437 6.316790 -16.534934 0
M  V30 32 C 6.424054 9.938216 -22.653289 0
M  V30 33 C 8.976557 6.354133 -8.513923 0 CFG=2
M  V30 34 C 7.411628 5.768992 -13.359837 0 CFG=2
M  V30 35 C 6.064978 6.476252 -16.483980 0 CFG=1
M  V30 36 C 8.519450 6.126200 -22.058890 0
M  V30 37 O 9.775336 5.226866 -8.844515 0
M  V30 38 C 6.044748 5.558602 -11.191364 0
M  V30 39 C 7.373758 7.759198 -14.624451 0
M  V30 40 H 6.612237 3.917192 -14.100995 0
M  V30 41 H 5.461785 5.189883 -14.046485 0
M  V30 42 H 4.672837 10.555955 -23.783427 0
M  V30 43 H 4.086235 6.989162 -21.485413 0
M  V30 44 H 4.546261 10.854874 -22.061387 0
M  V30 45 H 10.851096 6.975131 -10.355584 0
M  V30 46 H 10.200556 4.452019 -20.682822 0
M  V30 47 H 9.486201 3.092542 -16.385146 0
M  V30 48 H 8.521758 3.213500 -14.942882 0
M  V30 49 H 7.785566 2.678565 -16.449916 0
M  V30 50 H 7.828382 4.576589 -9.320943 0
M  V30 51 H 8.975400 8.522127 -8.714598 0
M  V30 52 H 6.348989 7.228432 -22.102160 0
M  V30 53 H 7.497032 4.200212 -11.945183 0
M  V30 54 H 6.515604 9.810216 -20.494207 0
M  V30 55 H 7.870257 9.085320 -21.294174 0
M  V30 56 H 4.107680 8.453723 -20.527141 0
M  V30 57 H 4.929414 4.389492 -10.152385 0
M  V30 58 H 9.452289 7.387106 -12.264557 0
M  V30 59 H 8.186534 7.875787 -11.184988 0
M  V30 60 H 10.123033 3.851416 -18.272174 0
M  V30 61 H 9.623612 4.068811 -11.385884 0
M  V30 62 H 6.177135 4.400047 -16.256013 0
M  V30 63 H 5.373173 8.127481 -15.183611 0
M  V30 64 H 6.515931 8.604844 -16.382617 0
M  V30 65 H 8.915402 5.454219 -15.891947 0
M  V30 66 H 10.863032 7.222355 -7.499686 0
M  V30 67 H 4.175412 5.990226 -15.584970 0
M  V30 68 H 4.023121 7.244784 -16.790083 0
M  V30 69 H 4.230368 5.590237 -17.272053 0
M  V30 70 H 6.799034 9.371538 -23.506896 0
M  V30 71 H 6.929211 10.903174 -22.688012 0
M  V30 72 H 8.523163 6.299652 -7.526530 0
M  V30 73 H 8.438439 5.639864 -13.702032 0
M  V30 74 H 9.428340 5.722267 -22.506276 0
M  V30 75 H 7.690054 5.671035 -22.602349 0
M  V30 76 H 8.557153 7.199756 -22.228228 0
M  V30 77 H 5.402522 6.239922 -11.751131 0
M  V30 78 H 6.162643 5.990184 -10.205428 0
M  V30 79 H 7.711605 8.766215 -14.397275 0
M  V30 80 H 8.175390 7.202533 -15.057475 0
M  V30 81 H 10.445829 8.564252 -10.533274 0
M  V30 END ATOM
M  V30 BEGIN BOND
M  V30 1 2 7 3
M  V30 2 1 8 2
M  V30 3 2 8 4
M  V30 4 1 11 5
M  V30 5 1 15 12
M  V30 6 1 16 8
M  V30 7 1 16 12
M  V30 8 1 17 3
M  V30 9 1 19 5
M  V30 10 2 20 6
M  V30 11 1 20 7
M  V30 12 1 22 1
M  V30 13 1 24 7
M  V30 14 1 24 9
M  V30 15 1 24 22
M  V30 16 1 25 6
M  V30 17 1 26 11
M  V30 18 1 27 12
M  V30 19 1 28 10
M  V30 20 1 28 13
M  V30 21 1 28 19
M  V30 22 1 28 21 CFG=3
M  V30 23 1 29 3
M  V30 24 2 29 25
M  V30 25 1 29 27
M  V30 26 1 30 17
M  V30 27 2 30 27
M  V30 28 1 32 2
M  V30 29 1 32 15
M  V30 30 1 33 10
M  V30 31 1 33 11
M  V30 32 1 34 1
M  V30 33 1 34 13
M  V30 34 1 34 14
M  V30 35 1 35 17
M  V30 36 1 35 22
M  V30 37 1 35 23
M  V30 38 1 35 31 CFG=3
M  V30 39 1 36 25
M  V30 40 1 37 10
M  V30 41 1 37 33
M  V30 42 1 38 13
M  V30 43 1 38 18
M  V30 44 1 39 14
M  V30 45 1 39 23
M  V30 46 1 40 1
M  V30 47 1 41 1
M  V30 48 1 42 2
M  V30 49 1 43 16
M  V30 50 1 44 2
M  V30 51 1 45 5
M  V30 52 1 46 6
M  V30 53 1 47 9
M  V30 54 1 48 9
M  V30 55 1 49 9
M  V30 56 1 10 50 CFG=1
M  V30 57 1 11 51 CFG=3
M  V30 58 1 12 52 CFG=3
M  V30 59 1 13 53 CFG=3
M  V30 60 1 54 15
M  V30 61 1 55 15
M  V30 62 1 56 16
M  V30 63 1 57 18
M  V30 64 1 58 19
M  V30 65 1 59 19
M  V30 66 1 60 20
M  V30 67 1 61 21
M  V30 68 1 22 62 CFG=3
M  V30 69 1 63 23
M  V30 70 1 64 23
M  V30 71 1 24 65 CFG=1
M  V30 72 1 66 26
M  V30 73 1 67 31
M  V30 74 1 68 31
M  V30 75 1 69 31
M  V30 76 1 70 32
M  V30 77 1 71 32
M  V30 78 1 33 72 CFG=1
M  V30 79 1 34 73 CFG=3
M  V30 80 1 74 36
M  V30 81 1 75 36
M  V30 82 1 76 36
M  V30 83 1 77 38
M  V30 84 1 78 38
M  V30 85 1 79 39
M  V30 86 1 80 39
M  V30 87 1 81 5
M  V30 END BOND
M  V30 END CTAB
M  END
>  <i_epik_Tot_Q>  (1) 
1

>  <i_epik_Tot_abs_Q>  (1) 
1

>  <i_i_glide_confnum>  (1) 
169

>  <i_i_glide_lignum>  (1) 
141

>  <i_i_glide_posenum>  (1) 
258

>  <i_i_glide_rotatable_bonds>  (1) 
7

>  <i_lp_mmshare_version>  (1) 
72125

>  <i_m_source_file_index>  (1) 
81

>  <i_f3d_flags>  (1) 
0

>  <num_sample>  (1) 
100

>  <b_lp_Chiralities_Consistent>  (1) 
1

>  <r_epik_Charging_Adjusted_Penalty>  (1) 
1.2255087210735522

>  <r_epik_Ionization_Penalty>  (1) 
1.2155625160302366

>  <r_epik_Ionization_Penalty_Charging>  (1) 
0.066233371384416553

>  <r_epik_Ionization_Penalty_Neutral>  (1) 
1.14932914464582

>  <r_epik_State_Penalty>  (1) 
1.1592753496891357

>  <r_glide_ring_energy>  (1) 
0

>  <r_i_docking_score>  (1) 
-4.1413670753602272

>  <r_i_glide_ecoul>  (1) 
-6.8541264500773433

>  <r_i_glide_eff_state_penalty>  (1) 
1.1592753496891357

>  <r_i_glide_einternal>  (1) 
1.1465826026217982

>  <r_i_glide_emodel>  (1) 
-65.438709176115367

>  <r_i_glide_emodel_strain>  (1) 
2.4827105498228832

>  <r_i_glide_energy>  (1) 
-30.65535406851248

>  <r_i_glide_erotb>  (1) 
0.2829020549976658

>  <r_i_glide_esite>  (1) 
-0.16960878950655234

>  <r_i_glide_evdw>  (1) 
-23.801227618435135

>  <r_i_glide_gscore>  (1) 
-5.3006424250493627

>  <r_i_glide_gscore_strain>  (1) 
0

>  <r_i_glide_hbond>  (1) 
-0.18291215805493061

>  <r_i_glide_ligand_efficiency>  (1) 
-0.10618889936821095

>  <r_i_glide_ligand_efficiency_ln>  (1) 
-0.88802666065263758

>  <r_i_glide_ligand_efficiency_sa>  (1) 
-0.36010901065855683

>  <r_i_glide_lipo>  (1) 
-2.0305303982682008

>  <r_i_glide_metal>  (1) 
-0

>  <r_i_glide_rewards>  (1) 
-0.98231278578398706

>  <r_lp_Energy>  (1) 
36.773640999999998

>  <r_lp_tautomer_probability>  (1) 
0.99999997999999979

>  <s_epik_Chemistry_Notes>  (1) 
This compound contains an acetal/aminal-like group ( X-CH(R)-Y where X, Y are N, S, or O) that may be acid/base labile, releasing an aldehyde.

>  <s_epik_cmdline>  (1) 
J2VwaWtfcHl0aG9uJywgJy1waHQnLCAnMS4wJywgJy1waCcsICc3LjQnLCAnLXRuJywgJzgnLCAnLW1hJywgJzUwMCcsICctaW1hZScsICc8aW5maWxlLm1hZT4nLCAnLW9tYWUnLCAnPG91dGZpbGUubWFlPic=

>  <s_epik_input>  (1) 
W0NASF0xMltDQEBIXShPMilbQ0BASF0oW09IXSlbTkhdW0NIMl1bQ0BdMShbT0hdKVtDQEBIXShbQ0gyXVtPSF0pW0NASF0oT1tDSDJdW0NIMl0zKVtDSDJdW0NAQEhdNFtDQEBIXShbQ0gzXSljKGM1bjZbQ0BdMzRbQ0gzXSlbY0hdW2NIXWMoW0NIM10pYzVjKG42KVtDQEhdKFtDSDJdW0NIMl1bQ0gyXTcpW0NIXT1DN1tPSF0=

>  <s_glide_docking_method>  (1) 
confgen

>  <s_i_glide_gridfile>  (1) 
gpcr_drd2_6luq_protein_autoprepared_prepared

>  <s_lp_Force_Field>  (1) 
S-OPLS

>  <s_lp_Variant>  (1) 
DiffSBDD_80-3

>  <s_m_source_file>  (1) 
generated_generic_title2_ligand_DiffSBDD_2026-06-23_prepared.sdf

>  <GenAI_Model>  (1) 
DiffSBDD

>  <Protein>  (1) 
generic_title2

$$$$
DiffSBDD_23
     RDKit          3D

  0  0  0  0  0  0  0  0  0  0999 V3000
M  V30 BEGIN CTAB
M  V30 COUNTS 69 71 0 0 1
M  V30 BEGIN ATOM
M  V30 1 O 11.613290 4.570981 -18.758998 0
M  V30 2 C 13.875141 8.416971 -19.599956 0 CFG=2
M  V30 3 C 10.781121 8.395557 -9.329390 0
M  V30 4 C 7.479839 6.712273 -12.072338 0 CFG=1
M  V30 5 C 8.815725 5.997386 -12.351450 0 CFG=1
M  V30 6 C 5.952982 6.377111 -15.662309 0
M  V30 7 F 14.592697 8.646766 -20.726435 0
M  V30 8 C 9.459328 5.971072 -8.780118 0
M  V30 9 C 11.900073 2.295722 -17.775073 0
M  V30 10 C 10.400861 7.550373 -10.389259 0
M  V30 11 C 12.909625 6.539157 -18.138963 0
M  V30 12 C 5.737617 4.675621 -13.848627 0
M  V30 13 O 9.373499 5.476087 -11.141395 0
M  V30 14 F 12.961553 6.458798 -20.470066 0
M  V30 15 O 14.553828 8.973806 -18.492332 0
M  V30 16 F 9.882870 5.947642 -16.921717 0
M  V30 17 C 6.723537 7.001471 -13.376974 0 CFG=2
M  V30 18 C 13.668880 6.899614 -19.428880 0 CFG=1
M  V30 19 C 8.919593 2.471356 -16.933042 0
M  V30 20 N 8.022879 5.350048 -14.625195 0
M  V30 21 F 10.618188 4.394159 -15.585788 0
M  V30 22 C 10.498280 8.032231 -7.998595 0
M  V30 23 C 8.267283 4.578897 -15.864522 0 CFG=2
M  V30 24 C 10.955868 3.360345 -18.369487 0 CFG=1
M  V30 25 C 9.644640 3.667042 -17.586080 0 CFG=2
M  V30 26 C 6.632113 5.818717 -14.380880 0
M  V30 27 C 9.837374 6.821670 -7.724393 0
M  V30 28 C 9.737401 6.331581 -10.116891 0
M  V30 29 O 8.822672 4.797418 -8.512542 0
M  V30 30 F 7.375756 7.990159 -13.983906 0
M  V30 31 C 7.983023 3.065726 -15.859553 0
M  V30 32 O 6.652605 5.990242 -11.184995 0
M  V30 33 C 8.678185 4.862763 -13.392564 0
M  V30 34 C 9.676209 4.713697 -16.463095 0
M  V30 35 C 12.683476 5.035719 -17.935156 0
M  V30 36 H 12.907279 8.904512 -19.687559 0
M  V30 37 H 11.290584 9.325089 -9.537548 0
M  V30 38 H 7.685882 7.665181 -11.585961 0
M  V30 39 H 9.505596 6.717579 -12.785258 0
M  V30 40 H 5.040739 6.922286 -15.421818 0
M  V30 41 H 6.599504 7.071665 -16.198706 0
M  V30 42 H 5.652554 5.592576 -16.356165 0
M  V30 43 H 11.410154 1.325850 -17.699706 0
M  V30 44 H 12.773235 2.152436 -18.412017 0
M  V30 45 H 12.252875 2.566920 -16.784093 0
M  V30 46 H 10.624492 7.833489 -11.404926 0
M  V30 47 H 11.953582 7.062661 -18.105237 0
M  V30 48 H 13.483748 6.906018 -17.287983 0
M  V30 49 H 4.697474 4.994082 -13.771708 0
M  V30 50 H 5.775495 3.820016 -14.511122 0
M  V30 51 H 6.022454 4.303812 -12.867919 0
M  V30 52 H 13.939252 9.547831 -18.051226 0
M  V30 53 H 5.732316 7.395492 -13.148436 0
M  V30 54 H 14.629157 6.385314 -19.460751 0
M  V30 55 H 9.618275 1.799224 -16.440331 0
M  V30 56 H 8.377677 1.881214 -17.671383 0
M  V30 57 H 10.788589 8.683045 -7.188451 0
M  V30 58 H 7.647320 4.990883 -16.654163 0
M  V30 59 H 10.620895 2.932831 -19.314767 0
M  V30 60 H 8.958395 4.069777 -18.333793 0
M  V30 61 H 9.619647 6.544811 -6.704172 0
M  V30 62 H 8.484737 4.421833 -9.312555 0
M  V30 63 H 8.175591 2.609477 -14.888530 0
M  V30 64 H 6.946250 2.857807 -16.116514 0
M  V30 65 H 6.575183 6.549431 -10.405865 0
M  V30 66 H 9.680548 4.496132 -13.593086 0
M  V30 67 H 8.142647 4.014239 -12.971181 0
M  V30 68 H 12.462929 4.876422 -16.883457 0
M  V30 69 H 13.596271 4.476983 -18.144215 0
M  V30 END ATOM
M  V30 BEGIN BOND
M  V30 1 1 5 4
M  V30 2 1 7 2
M  V30 3 1 10 3
M  V30 4 1 13 5
M  V30 5 1 15 2
M  V30 6 1 17 4
M  V30 7 1 18 2
M  V30 8 1 18 11
M  V30 9 1 18 14
M  V30 10 2 22 3
M  V30 11 1 23 20
M  V30 12 1 24 1
M  V30 13 1 24 9
M  V30 14 1 25 19
M  V30 15 1 25 24
M  V30 16 1 26 6
M  V30 17 1 26 12
M  V30 18 1 26 17
M  V30 19 1 26 20
M  V30 20 2 27 8
M  V30 21 1 27 22
M  V30 22 1 28 8
M  V30 23 2 28 10
M  V30 24 1 28 13
M  V30 25 1 29 8
M  V30 26 1 30 17
M  V30 27 1 31 19
M  V30 28 1 31 23
M  V30 29 1 32 4
M  V30 30 1 33 5
M  V30 31 1 33 20
M  V30 32 1 34 16
M  V30 33 1 34 21
M  V30 34 1 34 23
M  V30 35 1 34 25
M  V30 36 1 35 1
M  V30 37 1 35 11
M  V30 38 1 2 36 CFG=3
M  V30 39 1 37 3
M  V30 40 1 4 38 CFG=1
M  V30 41 1 5 39 CFG=3
M  V30 42 1 40 6
M  V30 43 1 41 6
M  V30 44 1 42 6
M  V30 45 1 43 9
M  V30 46 1 44 9
M  V30 47 1 45 9
M  V30 48 1 46 10
M  V30 49 1 47 11
M  V30 50 1 48 11
M  V30 51 1 49 12
M  V30 52 1 50 12
M  V30 53 1 51 12
M  V30 54 1 52 15
M  V30 55 1 17 53 CFG=1
M  V30 56 1 18 54 CFG=1
M  V30 57 1 55 19
M  V30 58 1 56 19
M  V30 59 1 57 22
M  V30 60 1 23 58 CFG=3
M  V30 61 1 24 59 CFG=3
M  V30 62 1 25 60 CFG=3
M  V30 63 1 61 27
M  V30 64 1 62 29
M  V30 65 1 63 31
M  V30 66 1 64 31
M  V30 67 1 65 32
M  V30 68 1 66 33
M  V30 69 1 67 33
M  V30 70 1 68 35
M  V30 71 1 69 35
M  V30 END BOND
M  V30 END CTAB
M  END
>  <i_epik_Tot_Q>  (1) 
0

>  <i_epik_Tot_abs_Q>  (1) 
0

>  <i_i_glide_confnum>  (1) 
2293

>  <i_i_glide_lignum>  (1) 
41

>  <i_i_glide_posenum>  (1) 
146

>  <i_i_glide_rotatable_bonds>  (1) 
12

>  <i_lp_mmshare_version>  (1) 
72125

>  <i_m_source_file_index>  (1) 
24

>  <i_f3d_flags>  (1) 
0

>  <num_sample>  (1) 
100

>  <b_lp_Chiralities_Consistent>  (1) 
1

>  <r_epik_Charging_Adjusted_Penalty>  (1) 
0.0080743036446832648

>  <r_epik_Ionization_Penalty>  (1) 
0.010611315271180252

>  <r_epik_Ionization_Penalty_Charging>  (1) 
0

>  <r_epik_Ionization_Penalty_Neutral>  (1) 
0.010611315271180252

>  <r_epik_State_Penalty>  (1) 
0.0080743036446832648

>  <r_glide_ring_energy>  (1) 
0

>  <r_i_docking_score>  (1) 
-4.1407719767931574

>  <r_i_glide_ecoul>  (1) 
-6.9202288650440984

>  <r_i_glide_eff_state_penalty>  (1) 
0.0080743036446832648

>  <r_i_glide_einternal>  (1) 
7.9257638698460653

>  <r_i_glide_emodel>  (1) 
-39.712238269575572

>  <r_i_glide_emodel_strain>  (1) 
1.530105659886857

>  <r_i_glide_energy>  (1) 
-37.160362024018823

>  <r_i_glide_erotb>  (1) 
0.70487652011910051

>  <r_i_glide_esite>  (1) 
-0.010216123044427332

>  <r_i_glide_evdw>  (1) 
-30.240133158974725

>  <r_i_glide_gscore>  (1) 
-4.1488462804378408

>  <r_i_glide_gscore_strain>  (1) 
0

>  <r_i_glide_hbond>  (1) 
-0.3798540763721811

>  <r_i_glide_ligand_efficiency>  (1) 
-0.11830777076551878

>  <r_i_glide_ligand_efficiency_ln>  (1) 
-0.90899134838870987

>  <r_i_glide_ligand_efficiency_sa>  (1) 
-0.38699256318460307

>  <r_i_glide_lipo>  (1) 
-1.2988117773605456

>  <r_i_glide_metal>  (1) 
-0

>  <r_i_glide_rewards>  (1) 
-0.61479983607443633

>  <r_lp_Energy>  (1) 
44.015346999999998

>  <r_lp_tautomer_probability>  (1) 
1

>  <s_epik_cmdline>  (1) 
J2VwaWtfcHl0aG9uJywgJy1waHQnLCAnMS4wJywgJy1waCcsICc3LjQnLCAnLXRuJywgJzgnLCAnLW1hJywgJzUwMCcsICctaW1hZScsICc8aW5maWxlLm1hZT4nLCAnLW9tYWUnLCAnPG91dGZpbGUubWFlPic=

>  <s_epik_input>  (1) 
RltDQEhdKFtPSF0pW0NASF0oRilbQ0gyXVtDSDJdT1tDQEBIXShbQ0gzXSlbQ0BIXTFbQ0gyXVtDSDJdW0NASF0oQzEoRilGKU4yW0NIMl1bQ0BASF0oW0NASF0oW09IXSlbQ0BASF0oRilDMihbQ0gzXSlbQ0gzXSlPW0NAQEhdM1tDSF09W0NIXVtDSF09W0NIXUMzPU8=

>  <s_glide_docking_method>  (1) 
confgen

>  <s_i_glide_gridfile>  (1) 
gpcr_drd2_6luq_protein_autoprepared_prepared

>  <s_lp_Force_Field>  (1) 
S-OPLS

>  <s_lp_Variant>  (1) 
DiffSBDD_23-1

>  <s_m_source_file>  (1) 
generated_generic_title2_ligand_DiffSBDD_2026-06-23_prepared.sdf

>  <GenAI_Model>  (1) 
DiffSBDD

>  <Protein>  (1) 
generic_title2

$$$$
DiffSBDD_81
     RDKit          3D

  0  0  0  0  0  0  0  0  0  0999 V3000
M  V30 BEGIN CTAB
M  V30 COUNTS 67 70 0 0 1
M  V30 BEGIN ATOM
M  V30 1 C 8.630118 5.939539 -11.727041 0 CFG=1
M  V30 2 C 6.640702 0.713825 -15.913046 0
M  V30 3 O 8.639643 -1.609081 -17.408720 0
M  V30 4 C 7.880229 -0.734374 -18.220642 0
M  V30 5 C 9.613959 6.630991 -9.307698 0
M  V30 6 C 10.502894 7.930587 -7.551853 0
M  V30 7 C 9.546586 6.946944 -7.959214 0
M  V30 8 C 7.769368 7.205135 -11.985189 0
M  V30 9 O 5.958606 -3.203827 -17.674346 0
M  V30 10 O 9.375351 4.390328 -10.011577 0
M  V30 11 C 6.531250 4.409552 -12.411364 0 CFG=2
M  V30 12 C 11.728423 9.202758 -5.894115 0
M  V30 13 C 11.432563 7.586544 -11.517995 0 CFG=1
M  V30 14 C 8.043020 4.722256 -12.525748 0
M  V30 15 C 11.290535 7.940381 -9.961289 0
M  V30 16 O 4.381308 -1.858526 -18.771897 0
M  V30 17 N 9.941348 6.074959 -12.383643 0
M  V30 18 C 4.750772 -0.777178 -15.986901 0
M  V30 19 C 10.593517 7.304344 -9.979013 0
M  V30 20 C 6.376126 -0.782821 -17.834380 0 CFG=1
M  V30 21 O 10.324024 7.467665 -12.383852 0
M  V30 22 C 8.802534 5.654722 -10.166913 0 CFG=2
M  V30 23 C 6.137374 2.975873 -12.842165 0
M  V30 24 C 11.399334 8.456560 -8.597690 0
M  V30 25 C 6.660820 0.956898 -14.411624 0 CFG=2
M  V30 26 C 6.975289 2.361516 -13.948376 0 CFG=2
M  V30 27 O 5.802891 5.276504 -13.259271 0
M  V30 28 O 10.575394 7.294147 -5.299369 0
M  V30 29 C 7.947610 1.239833 -13.669988 0
M  V30 30 C 5.745532 -2.062119 -18.471042 0
M  V30 31 N 10.580952 8.361315 -6.209647 0
M  V30 32 N 6.154331 -0.594535 -16.373799 0
M  V30 33 H 6.047143 1.501513 -16.380012 0
M  V30 34 H 7.662594 0.881065 -16.244481 0
M  V30 35 H 8.099389 -1.861066 -16.663989 0
M  V30 36 H 8.033603 -1.004867 -19.265311 0
M  V30 37 H 8.284653 0.271810 -18.133589 0
M  V30 38 H 8.834784 6.495619 -7.282295 0
M  V30 39 H 6.760350 7.084761 -11.589738 0
M  V30 40 H 8.178740 8.088938 -11.495301 0
M  V30 41 H 7.675995 7.426188 -13.048382 0
M  V30 42 H 5.276885 -3.828851 -17.868481 0
M  V30 43 H 8.864204 3.764342 -10.498355 0
M  V30 44 H 6.190911 4.574915 -11.388287 0
M  V30 45 H 11.585195 10.204217 -6.301748 0
M  V30 46 H 11.843452 9.310410 -4.813832 0
M  V30 47 H 12.651461 8.790865 -6.291046 0
M  V30 48 H 12.176677 6.812810 -11.686180 0
M  V30 49 H 8.245509 4.865919 -13.589142 0
M  V30 50 H 8.602514 3.819245 -12.281195 0
M  V30 51 H 4.288256 -1.050577 -19.253952 0
M  V30 52 H 9.871353 5.827484 -13.360313 0
M  V30 53 H 4.369085 -1.745618 -16.298957 0
M  V30 54 H 4.623929 -0.761598 -14.908445 0
M  V30 55 H 4.104202 -0.010586 -16.403602 0
M  V30 56 H 5.918463 0.063934 -18.350000 0
M  V30 57 H 7.808481 5.594263 -9.720304 0
M  V30 58 H 6.175341 2.310227 -11.982429 0
M  V30 59 H 5.100009 2.962138 -13.185196 0
M  V30 60 H 12.145284 9.198661 -8.365162 0
M  V30 61 H 5.895289 0.447635 -13.834090 0
M  V30 62 H 7.238455 3.053378 -14.745217 0
M  V30 63 H 6.087845 5.136400 -14.149018 0
M  V30 64 H 11.089547 6.608999 -5.701173 0
M  V30 65 H 8.869086 1.190270 -14.242465 0
M  V30 66 H 8.023085 0.873029 -12.648386 0
M  V30 67 H 6.211931 -2.262335 -19.435767 0
M  V30 END ATOM
M  V30 BEGIN BOND
M  V30 1 1 4 3
M  V30 2 2 7 5
M  V30 3 1 7 6
M  V30 4 1 1 8 CFG=1
M  V30 5 1 14 1
M  V30 6 1 14 11
M  V30 7 1 15 13
M  V30 8 1 17 1
M  V30 9 1 19 5
M  V30 10 1 19 13
M  V30 11 2 19 15
M  V30 12 1 20 4
M  V30 13 1 21 13
M  V30 14 1 21 17
M  V30 15 1 22 1
M  V30 16 1 22 5
M  V30 17 1 22 10
M  V30 18 1 23 11
M  V30 19 2 24 6
M  V30 20 1 24 15
M  V30 21 1 25 2
M  V30 22 1 26 23
M  V30 23 1 26 25
M  V30 24 1 27 11
M  V30 25 1 29 25
M  V30 26 1 29 26
M  V30 27 1 30 9
M  V30 28 1 30 16
M  V30 29 1 30 20
M  V30 30 1 31 6
M  V30 31 1 31 12
M  V30 32 1 31 28
M  V30 33 1 32 2
M  V30 34 1 32 18
M  V30 35 1 32 20
M  V30 36 1 33 2
M  V30 37 1 34 2
M  V30 38 1 35 3
M  V30 39 1 36 4
M  V30 40 1 37 4
M  V30 41 1 38 7
M  V30 42 1 39 8
M  V30 43 1 40 8
M  V30 44 1 41 8
M  V30 45 1 42 9
M  V30 46 1 43 10
M  V30 47 1 11 44 CFG=1
M  V30 48 1 45 12
M  V30 49 1 46 12
M  V30 50 1 47 12
M  V30 51 1 13 48 CFG=3
M  V30 52 1 49 14
M  V30 53 1 50 14
M  V30 54 1 51 16
M  V30 55 1 52 17
M  V30 56 1 53 18
M  V30 57 1 54 18
M  V30 58 1 55 18
M  V30 59 1 20 56 CFG=3
M  V30 60 1 22 57 CFG=1
M  V30 61 1 58 23
M  V30 62 1 59 23
M  V30 63 1 60 24
M  V30 64 1 25 61 CFG=1
M  V30 65 1 26 62 CFG=3
M  V30 66 1 63 27
M  V30 67 1 64 28
M  V30 68 1 65 29
M  V30 69 1 66 29
M  V30 70 1 67 30
M  V30 END BOND
M  V30 END CTAB
M  END
>  <i_epik_Tot_Q>  (1) 
0

>  <i_epik_Tot_abs_Q>  (1) 
0

>  <i_i_glide_confnum>  (1) 
1366

>  <i_i_glide_lignum>  (1) 
145

>  <i_i_glide_posenum>  (1) 
300

>  <i_i_glide_rotatable_bonds>  (1) 
16

>  <i_lp_mmshare_version>  (1) 
72125

>  <i_m_source_file_index>  (1) 
82

>  <i_f3d_flags>  (1) 
0

>  <num_sample>  (1) 
100

>  <b_lp_Chiralities_Consistent>  (1) 
1

>  <r_epik_Charging_Adjusted_Penalty>  (1) 
0.53465553772288132

>  <r_epik_Ionization_Penalty>  (1) 
0.53502174055569018

>  <r_epik_Ionization_Penalty_Charging>  (1) 
0

>  <r_epik_Ionization_Penalty_Neutral>  (1) 
0.53502174055569018

>  <r_epik_State_Penalty>  (1) 
0.53465553772288132

>  <r_glide_ring_energy>  (1) 
0

>  <r_i_docking_score>  (1) 
-4.1403098261566162

>  <r_i_glide_ecoul>  (1) 
-1.8796071507378218

>  <r_i_glide_eff_state_penalty>  (1) 
0.53465553772288132

>  <r_i_glide_einternal>  (1) 
27.963351678166298

>  <r_i_glide_emodel>  (1) 
-31.270636468996628

>  <r_i_glide_emodel_strain>  (1) 
2.8005064427782145

>  <r_i_glide_energy>  (1) 
-37.494922563892302

>  <r_i_glide_erotb>  (1) 
0.97589078675502272

>  <r_i_glide_esite>  (1) 
-0.0015438553772160438

>  <r_i_glide_evdw>  (1) 
-35.615315413154484

>  <r_i_glide_gscore>  (1) 
-4.6749653638794975

>  <r_i_glide_gscore_strain>  (1) 
0

>  <r_i_glide_hbond>  (1) 
-0.20935577581092851

>  <r_i_glide_ligand_efficiency>  (1) 
-0.12938468206739426

>  <r_i_glide_ligand_efficiency_ln>  (1) 
-0.92712823065979122

>  <r_i_glide_ligand_efficiency_sa>  (1) 
-0.41077076084470543

>  <r_i_glide_lipo>  (1) 
-1.9450071962866109

>  <r_i_glide_metal>  (1) 
-0

>  <r_i_glide_rewards>  (1) 
-1.4322424798913671

>  <r_lp_Energy>  (1) 
74.761414000000002

>  <s_epik_Chemistry_Notes>  (1) 
This compound contains an acetal/aminal-like group ( X-CH(R)-Y where X, Y are N, S, or O) that may be acid/base labile, releasing an aldehyde. This compound has a N-S or N-O group and may undergo hydrolysis at high or low pH.

>  <s_epik_cmdline>  (1) 
J2VwaWtfcHl0aG9uJywgJy1waHQnLCAnMS4wJywgJy1waCcsICc3LjQnLCAnLXRuJywgJzgnLCAnLW1hJywgJzUwMCcsICctaW1hZScsICc8aW5maWxlLm1hZT4nLCAnLW9tYWUnLCAnPG91dGZpbGUubWFlPic=

>  <s_epik_input>  (1) 
W0NIM11OKFtPSF0pYyhbY0hdMSlbY0hdYyhjMmMxMylbQ0BASF0yT1tOSF1bQ0BdKFtDSDNdKShbQ0BIXTNbT0hdKVtDSDJdW0NAQEhdKFtPSF0pW0NIMl1bQ0BASF0oW0NIMl00KVtDQEhdNFtDSDJdTihbQ0gzXSlbQ0BASF0oW0NIMl1bT0hdKVtDSF0oW09IXSlbT0hd

>  <s_glide_docking_method>  (1) 
confgen

>  <s_i_glide_gridfile>  (1) 
gpcr_drd2_6luq_protein_autoprepared_prepared

>  <s_lp_Force_Field>  (1) 
S-OPLS

>  <s_lp_Variant>  (1) 
DiffSBDD_81-3

>  <s_m_source_file>  (1) 
generated_generic_title2_ligand_DiffSBDD_2026-06-23_prepared.sdf

>  <GenAI_Model>  (1) 
DiffSBDD

>  <Protein>  (1) 
generic_title2

$$$$
DiffSBDD_96
     RDKit          3D

  0  0  0  0  0  0  0  0  0  0999 V3000
M  V30 BEGIN CTAB
M  V30 COUNTS 39 42 0 0 1
M  V30 BEGIN ATOM
M  V30 1 C 7.402445 4.381721 -12.558790 0
M  V30 2 C 9.379162 4.657255 -8.407068 0
M  V30 3 C 10.960370 7.962021 -8.380424 0
M  V30 4 C 10.591245 7.521505 -9.649238 0
M  V30 5 C 10.386846 7.242040 -6.068855 0
M  V30 6 C 9.291842 6.192467 -8.157918 0 CFG=2
M  V30 7 C 9.733586 6.542237 -9.540314 0
M  V30 8 C 7.720726 3.937688 -14.943240 0
M  V30 9 O 5.937253 7.077491 -13.183236 0
M  V30 10 S 8.975410 5.190227 -14.551836 0
M  V30 11 N 9.271020 5.674398 -10.474131 0
M  V30 12 N 10.281790 7.161252 -7.518947 0
M  V30 13 C 6.671243 3.961700 -13.834323 0
M  V30 14 C 9.604880 5.659035 -11.906558 0
M  V30 15 C 8.823479 4.448103 -9.884788 0
M  V30 16 F 11.166457 7.925320 -10.785025 0
M  V30 17 C 8.379597 5.541368 -12.867790 0 CFG=2
M  V30 18 C 6.635339 7.357109 -14.408776 0
M  V30 19 O 11.752308 8.853884 -8.075939 0
M  V30 20 O 8.175410 8.456933 -12.385026 0
M  V30 21 P 7.525394 7.197649 -12.844994 0 CFG=1
M  V30 22 H 7.962378 3.513443 -12.214222 0
M  V30 23 H 6.687040 4.649515 -11.780959 0
M  V30 24 H 8.820291 4.082755 -7.672506 0
M  V30 25 H 10.421714 4.342944 -8.385025 0
M  V30 26 H 11.406110 7.028821 -5.747775 0
M  V30 27 H 9.725468 6.518787 -5.590979 0
M  V30 28 H 10.112588 8.237397 -5.718076 0
M  V30 29 H 8.265064 6.509222 -7.985026 0
M  V30 30 H 7.282160 4.115677 -15.925341 0
M  V30 31 H 8.202064 2.960594 -14.972180 0
M  V30 32 H 5.873406 4.663739 -14.068909 0
M  V30 33 H 6.195396 2.987178 -13.718674 0
M  V30 34 H 10.178401 6.532289 -12.202595 0
M  V30 35 H 10.267210 4.809547 -12.076253 0
M  V30 36 H 7.735646 4.390218 -9.881066 0
M  V30 37 H 9.270891 3.590230 -10.385027 0
M  V30 38 H 6.419797 8.350970 -14.789230 0
M  V30 39 H 6.542116 6.527516 -15.101529 0
M  V30 END ATOM
M  V30 BEGIN BOND
M  V30 1 1 4 3
M  V30 2 1 6 2
M  V30 3 2 7 4
M  V30 4 1 7 6
M  V30 5 1 10 8
M  V30 6 1 11 7
M  V30 7 1 12 3
M  V30 8 1 12 5
M  V30 9 1 12 6
M  V30 10 1 13 1
M  V30 11 1 13 8
M  V30 12 1 14 11
M  V30 13 1 15 2
M  V30 14 1 15 11
M  V30 15 1 16 4
M  V30 16 1 17 1
M  V30 17 1 17 10
M  V30 18 1 17 14 CFG=1
M  V30 19 1 18 9
M  V30 20 2 19 3
M  V30 21 1 21 9 CFG=1
M  V30 22 1 21 17
M  V30 23 1 21 18
M  V30 24 2 21 20
M  V30 25 1 22 1
M  V30 26 1 23 1
M  V30 27 1 24 2
M  V30 28 1 25 2
M  V30 29 1 26 5
M  V30 30 1 27 5
M  V30 31 1 28 5
M  V30 32 1 6 29 CFG=3
M  V30 33 1 30 8
M  V30 34 1 31 8
M  V30 35 1 32 13
M  V30 36 1 33 13
M  V30 37 1 34 14
M  V30 38 1 35 14
M  V30 39 1 36 15
M  V30 40 1 37 15
M  V30 41 1 38 18
M  V30 42 1 39 18
M  V30 END BOND
M  V30 END CTAB
M  END
>  <i_epik_Tot_Q>  (1) 
0

>  <i_epik_Tot_abs_Q>  (1) 
0

>  <i_i_glide_confnum>  (1) 
3

>  <i_i_glide_lignum>  (1) 
184

>  <i_i_glide_posenum>  (1) 
132

>  <i_i_glide_rotatable_bonds>  (1) 
3

>  <i_lp_mmshare_version>  (1) 
72125

>  <i_m_source_file_index>  (1) 
97

>  <i_f3d_flags>  (1) 
0

>  <num_sample>  (1) 
100

>  <b_lp_Chiralities_Consistent>  (1) 
1

>  <r_epik_Charging_Adjusted_Penalty>  (1) 
0

>  <r_epik_Ionization_Penalty>  (1) 
2.3370039309423061e-08

>  <r_epik_Ionization_Penalty_Charging>  (1) 
0

>  <r_epik_Ionization_Penalty_Neutral>  (1) 
2.3370039309423061e-08

>  <r_epik_State_Penalty>  (1) 
-0

>  <r_glide_ring_energy>  (1) 
1.2780340719072554

>  <r_i_docking_score>  (1) 
-4.1375598752559171

>  <r_i_glide_ecoul>  (1) 
-1.6320549057973066

>  <r_i_glide_eff_state_penalty>  (1) 
-0

>  <r_i_glide_einternal>  (1) 
6.0311362570185709

>  <r_i_glide_emodel>  (1) 
-32.316950473836449

>  <r_i_glide_emodel_strain>  (1) 
0.39861099249165477

>  <r_i_glide_energy>  (1) 
-30.083212196862746

>  <r_i_glide_erotb>  (1) 
0.51154997196258456

>  <r_i_glide_esite>  (1) 
-0.074880881523790396

>  <r_i_glide_evdw>  (1) 
-28.451157291065439

>  <r_i_glide_gscore>  (1) 
-4.1375598752559171

>  <r_i_glide_gscore_strain>  (1) 
0

>  <r_i_glide_hbond>  (1) 
0

>  <r_i_glide_ligand_efficiency>  (1) 
-0.19702666072647224

>  <r_i_glide_ligand_efficiency_ln>  (1) 
-1.0230033184300649

>  <r_i_glide_ligand_efficiency_sa>  (1) 
-0.54358161766990498

>  <r_i_glide_lipo>  (1) 
-1.0889330410398119

>  <r_i_glide_metal>  (1) 
-0

>  <r_i_glide_rewards>  (1) 
-1.817929824232031

>  <r_lp_Energy>  (1) 
19.645654999999998

>  <r_lp_tautomer_probability>  (1) 
1

>  <s_epik_cmdline>  (1) 
J2VwaWtfcHl0aG9uJywgJy1waHQnLCAnMS4wJywgJy1waCcsICc3LjQnLCAnLXRuJywgJzgnLCAnLW1hJywgJzUwMCcsICctaW1hZScsICc8aW5maWxlLm1hZT4nLCAnLW9tYWUnLCAnPG91dGZpbGUubWFlPic=

>  <s_epik_input>  (1) 
UzFbQ0gyXVtDSDJdW0NIMl1bQ0BAXTEoW1BAXTIoPU8pT1tDSDJdMilbQ0gyXU4oW0NIMl1bQ0gyXTMpQyhbQ0BASF0zNCk9QyhGKUMoPU8pTjRbQ0gzXQ==

>  <s_glide_docking_method>  (1) 
confgen

>  <s_i_glide_gridfile>  (1) 
gpcr_drd2_6luq_protein_autoprepared_prepared

>  <s_lp_Force_Field>  (1) 
S-OPLS

>  <s_lp_Variant>  (1) 
DiffSBDD_96-1

>  <s_m_source_file>  (1) 
generated_generic_title2_ligand_DiffSBDD_2026-06-23_prepared.sdf

>  <GenAI_Model>  (1) 
DiffSBDD

>  <Protein>  (1) 
generic_title2

$$$$
DiffSBDD_21
     RDKit          3D

  0  0  0  0  0  0  0  0  0  0999 V3000
M  V30 BEGIN CTAB
M  V30 COUNTS 75 79 0 0 1
M  V30 BEGIN ATOM
M  V30 1 F 8.974450 4.450160 -15.153057 0
M  V30 2 O 6.022255 7.121225 -13.310390 0
M  V30 3 O 11.689344 7.812138 -8.905975 0
M  V30 4 C 9.786055 8.006708 -5.994033 0 CFG=1
M  V30 5 C 10.328992 7.136821 -7.115708 0 CFG=2
M  V30 6 C 7.423616 5.700115 -12.029648 0 CFG=2
M  V30 7 C 9.992413 4.389357 -18.437661 0
M  V30 8 N 7.496075 5.521716 -17.522498 0
M  V30 9 C 9.956932 6.532897 -5.785766 0
M  V30 10 C 8.696882 4.135316 -19.200210 0 CFG=1
M  V30 11 C 7.947867 5.726140 -13.455968 0 CFG=1
M  V30 12 C 8.109630 2.723734 -18.967199 0 CFG=2
M  V30 13 C 6.771784 2.710003 -19.716601 0 CFG=1
M  V30 14 C 8.318688 4.332811 -13.999066 0
M  V30 15 C 7.561322 5.151101 -18.932009 0 CFG=1
M  V30 16 O 5.995298 1.600494 -19.284065 0
M  V30 17 C 9.283902 5.481292 -8.778191 0
M  V30 18 C 11.787575 9.074601 -6.781601 0 CFG=1
M  V30 19 C 5.566173 7.058886 -17.593180 0
M  V30 20 O 9.360572 0.800758 -17.413625 0 CHG=-1
M  V30 21 C 8.180848 5.238339 -9.832698 0
M  V30 22 C 4.962825 1.248786 -20.183445 0
M  V30 23 S 6.015943 4.340942 -19.453635 0
M  V30 24 C 6.833145 6.455607 -14.180514 0
M  V30 25 C 13.177944 9.590205 -6.385118 0
M  V30 26 C 6.496374 6.925393 -11.983942 0
M  V30 27 C 8.485133 1.494920 -16.850176 0
M  V30 28 N 7.856078 2.451582 -17.543164 0
M  V30 29 C 11.683006 7.698240 -7.487891 0 CFG=2
M  V30 30 O 8.502993 5.788732 -11.103391 0
M  V30 31 O 8.175396 1.324958 -15.652653 0
M  V30 32 C 6.615359 6.304902 -16.791115 0
M  V30 33 C 10.836917 9.002972 -5.586183 0
M  V30 34 C 6.673272 6.401968 -15.483783 0
M  V30 35 C 10.358130 7.754976 -9.413372 0
M  V30 36 C 11.129863 4.812220 -19.011671 0
M  V30 37 C 9.538921 6.961504 -8.388638 0 CFG=2
M  V30 38 H 8.773163 8.389615 -6.104498 0
M  V30 39 H 6.837024 4.790006 -11.887310 0
M  V30 40 H 9.971748 4.209378 -17.373308 0
M  V30 41 H 8.158217 5.002751 -16.957616 0
M  V30 42 H 10.760753 6.187496 -5.138709 0
M  V30 43 H 9.022026 5.990214 -5.709029 0
M  V30 44 H 8.934584 4.205425 -20.263138 0
M  V30 45 H 8.828146 6.367320 -13.491497 0
M  V30 46 H 8.766092 1.973967 -19.412140 0
M  V30 47 H 6.991008 2.620237 -20.782120 0
M  V30 48 H 8.984954 3.809552 -13.312892 0
M  V30 49 H 7.446999 3.698578 -14.166331 0
M  V30 50 H 7.722147 6.057002 -19.517107 0
M  V30 51 H 8.986689 4.932847 -7.885352 0
M  V30 52 H 10.195002 5.008709 -9.118800 0
M  V30 53 H 11.375724 9.790124 -7.483859 0
M  V30 54 H 5.410758 8.056751 -17.179480 0
M  V30 55 H 5.844041 7.187956 -18.638161 0
M  V30 56 H 4.614177 6.529173 -17.556028 0
M  V30 57 H 7.217805 5.590239 -9.468000 0
M  V30 58 H 8.055129 4.166827 -9.980702 0
M  V30 59 H 4.352842 0.453951 -19.754130 0
M  V30 60 H 4.316644 2.100113 -20.385129 0
M  V30 61 H 5.375890 0.889887 -21.126612 0
M  V30 62 H 13.518918 9.190356 -5.430246 0
M  V30 63 H 13.915584 9.346779 -7.148526 0
M  V30 64 H 13.148007 10.671775 -6.283118 0
M  V30 65 H 7.054941 7.815979 -11.693559 0
M  V30 66 H 5.676231 6.792061 -11.277825 0
M  V30 67 H 7.148446 2.999942 -17.079744 0
M  V30 68 H 12.464861 7.006762 -7.185071 0
M  V30 69 H 11.344299 8.630708 -4.695250 0
M  V30 70 H 10.407738 9.974621 -5.343064 0
M  V30 71 H 10.346095 7.330661 -10.415911 0
M  V30 72 H 9.976441 8.774401 -9.482976 0
M  V30 73 H 11.183061 4.999334 -20.073443 0
M  V30 74 H 12.021426 4.975474 -18.424400 0
M  V30 75 H 8.575476 7.427933 -8.225545 0
M  V30 END ATOM
M  V30 BEGIN BOND
M  V30 1 1 5 4
M  V30 2 1 9 4
M  V30 3 1 5 9 CFG=1
M  V30 4 1 10 7
M  V30 5 1 11 6
M  V30 6 1 12 10
M  V30 7 1 13 12
M  V30 8 1 14 1
M  V30 9 1 14 11
M  V30 10 1 15 8
M  V30 11 1 15 10
M  V30 12 1 16 13
M  V30 13 1 21 17
M  V30 14 1 22 16
M  V30 15 1 23 13
M  V30 16 1 23 15
M  V30 17 1 24 2
M  V30 18 1 24 11
M  V30 19 1 25 18
M  V30 20 1 26 2
M  V30 21 1 26 6
M  V30 22 1 27 20
M  V30 23 1 28 12
M  V30 24 1 28 27
M  V30 25 1 29 3
M  V30 26 1 29 5
M  V30 27 1 29 18
M  V30 28 1 30 6
M  V30 29 1 30 21
M  V30 30 2 31 27
M  V30 31 1 32 8
M  V30 32 1 32 19
M  V30 33 1 33 4
M  V30 34 1 33 18
M  V30 35 2 34 24
M  V30 36 2 34 32
M  V30 37 1 35 3
M  V30 38 2 36 7
M  V30 39 1 37 5
M  V30 40 1 37 17
M  V30 41 1 37 35
M  V30 42 1 4 38 CFG=3
M  V30 43 1 6 39 CFG=1
M  V30 44 1 40 7
M  V30 45 1 41 8
M  V30 46 1 42 9
M  V30 47 1 43 9
M  V30 48 1 10 44 CFG=3
M  V30 49 1 11 45 CFG=1
M  V30 50 1 12 46 CFG=3
M  V30 51 1 13 47 CFG=3
M  V30 52 1 48 14
M  V30 53 1 49 14
M  V30 54 1 15 50 CFG=3
M  V30 55 1 51 17
M  V30 56 1 52 17
M  V30 57 1 18 53 CFG=3
M  V30 58 1 54 19
M  V30 59 1 55 19
M  V30 60 1 56 19
M  V30 61 1 57 21
M  V30 62 1 58 21
M  V30 63 1 59 22
M  V30 64 1 60 22
M  V30 65 1 61 22
M  V30 66 1 62 25
M  V30 67 1 63 25
M  V30 68 1 64 25
M  V30 69 1 65 26
M  V30 70 1 66 26
M  V30 71 1 67 28
M  V30 72 1 29 68 CFG=3
M  V30 73 1 69 33
M  V30 74 1 70 33
M  V30 75 1 71 35
M  V30 76 1 72 35
M  V30 77 1 73 36
M  V30 78 1 74 36
M  V30 79 1 37 75 CFG=1
M  V30 END BOND
M  V30 END CTAB
M  END
>  <i_epik_Tot_Q>  (1) 
-1

>  <i_epik_Tot_abs_Q>  (1) 
1

>  <i_i_glide_confnum>  (1) 
1149

>  <i_i_glide_lignum>  (1) 
38

>  <i_i_glide_posenum>  (1) 
81

>  <i_i_glide_rotatable_bonds>  (1) 
11

>  <i_lp_mmshare_version>  (1) 
72125

>  <i_m_source_file_index>  (1) 
22

>  <i_f3d_flags>  (1) 
0

>  <num_sample>  (1) 
100

>  <b_lp_Chiralities_Consistent>  (1) 
1

>  <r_epik_Charging_Adjusted_Penalty>  (1) 
0.00061310518503501809

>  <r_epik_Ionization_Penalty>  (1) 
0.00061311684036178345

>  <r_epik_Ionization_Penalty_Charging>  (1) 
0.00061310518503501809

>  <r_epik_Ionization_Penalty_Neutral>  (1) 
1.1655326765339942e-08

>  <r_epik_State_Penalty>  (1) 
-0

>  <r_glide_ring_energy>  (1) 
0

>  <r_i_docking_score>  (1) 
-4.1320676415890309

>  <r_i_glide_ecoul>  (1) 
-1.2034019025218927

>  <r_i_glide_eff_state_penalty>  (1) 
-0

>  <r_i_glide_einternal>  (1) 
4.3090084758795477

>  <r_i_glide_emodel>  (1) 
-40.179683019894327

>  <r_i_glide_emodel_strain>  (1) 
0.47873039926963656

>  <r_i_glide_energy>  (1) 
-35.835933939693831

>  <r_i_glide_erotb>  (1) 
0.57165655028623308

>  <r_i_glide_esite>  (1) 
0

>  <r_i_glide_evdw>  (1) 
-34.632532037171941

>  <r_i_glide_gscore>  (1) 
-4.1320676415890309

>  <r_i_glide_gscore_strain>  (1) 
0

>  <r_i_glide_hbond>  (1) 
0

>  <r_i_glide_ligand_efficiency>  (1) 
-0.11167750382673057

>  <r_i_glide_ligand_efficiency_ln>  (1) 
-0.89614860205121571

>  <r_i_glide_ligand_efficiency_sa>  (1) 
-0.37213421858870621

>  <r_i_glide_lipo>  (1) 
-2.4149984586997575

>  <r_i_glide_metal>  (1) 
-0

>  <r_i_glide_rewards>  (1) 
-0.37658884593862496

>  <r_lp_Energy>  (1) 
-4.7551119999999996

>  <r_lp_tautomer_probability>  (1) 
1

>  <s_epik_Chemistry_Notes>  (1) 
This compound contains an acetal/aminal-like group ( X-CH(R)-Y where X, Y are N, S, or O) that may be acid/base labile, releasing an aldehyde.

>  <s_epik_cmdline>  (1) 
J2VwaWtfcHl0aG9uJywgJy1waHQnLCAnMS4wJywgJy1waCcsICc3LjQnLCAnLXRuJywgJzgnLCAnLW1hJywgJzUwMCcsICctaW1hZScsICc8aW5maWxlLm1hZT4nLCAnLW9tYWUnLCAnPG91dGZpbGUubWFlPic=

>  <s_epik_input>  (1) 
W09IXUMoPU8pW05IXVtDQEhdKFtDQEBIXTFbQ0hdPVtDSDJdKVtDQEBIXShPW0NIM10pU1tDQEhdMVtOSF1DKFtDSDNdKT1DPUMoT1tDSDJdMilbQ0BIXShbQ0gyXUYpW0NASF0yT1tDSDJdW0NIMl1bQ0BASF0zW0NIMl1PW0NASF00W0NASF0oW0NIM10pW0NIMl1bQ0BASF0oW0NAQF0zNDUpW0NIMl01

>  <s_glide_docking_method>  (1) 
confgen

>  <s_i_glide_gridfile>  (1) 
gpcr_drd2_6luq_protein_autoprepared_prepared

>  <s_lp_Force_Field>  (1) 
S-OPLS

>  <s_lp_Variant>  (1) 
DiffSBDD_21-1

>  <s_m_source_file>  (1) 
generated_generic_title2_ligand_DiffSBDD_2026-06-23_prepared.sdf

>  <GenAI_Model>  (1) 
DiffSBDD

>  <Protein>  (1) 
generic_title2

$$$$
DiffSBDD_57
     RDKit          3D

  0  0  0  0  0  0  0  0  0  0999 V3000
M  V30 BEGIN CTAB
M  V30 COUNTS 63 67 0 0 1
M  V30 BEGIN ATOM
M  V30 1 C 8.119699 4.941539 -11.916030 0
M  V30 2 C 9.898993 4.625002 -16.292045 0
M  V30 3 C 15.718834 7.957217 -18.707451 0
M  V30 4 N 20.142309 6.005985 -19.578787 0
M  V30 5 C 10.009138 5.319407 -17.665626 0 CFG=2
M  V30 6 C 7.633581 4.542478 -18.121317 0
M  V30 7 C 8.145532 4.139571 -14.339285 0 CFG=2
M  V30 8 C 9.073906 4.602751 -18.659760 0
M  V30 9 C 12.518252 4.782449 -17.577985 0
M  V30 10 C 7.152117 6.120555 -12.220262 0
M  V30 11 C 19.062445 9.650651 -17.984866 0
M  V30 12 F 19.334616 10.491888 -18.980562 0
M  V30 13 C 13.822461 4.904907 -18.094052 0
M  V30 14 F 18.633063 10.340426 -16.928790 0
M  V30 15 C 14.058307 5.686389 -19.241398 0
M  V30 16 O 15.328752 5.792548 -19.748722 0
M  V30 17 C 18.409741 7.405486 -19.020152 0
M  V30 18 C 6.304216 5.845873 -14.704296 0
M  V30 19 C 5.970993 5.831806 -13.190836 0
M  V30 20 C 16.650594 8.909779 -18.274599 0
M  V30 21 C 7.229008 2.928814 -14.116769 0
M  V30 22 C 12.986948 6.349453 -19.874390 0
M  V30 23 C 11.680475 6.232203 -19.360244 0
M  V30 24 N 17.507752 6.474901 -19.437051 0
M  V30 25 C 8.975124 4.392413 -13.089581 0
M  V30 26 N 19.796073 7.135939 -19.184573 0
M  V30 27 N 7.586313 3.864212 -16.808385 0 CHG=1
M  V30 28 C 7.752453 5.491070 -14.932058 0 CFG=2
M  V30 29 C 18.020884 8.635800 -18.432272 0
M  V30 30 C 11.437756 5.446520 -18.212368 0
M  V30 31 C 16.194189 6.757851 -19.283037 0
M  V30 32 C 8.466734 4.487343 -15.794671 0 CFG=2
M  V30 33 H 8.804882 5.261427 -11.130131 0
M  V30 34 H 7.547286 4.133500 -11.462012 0
M  V30 35 H 10.299592 3.615089 -16.379698 0
M  V30 36 H 10.494425 5.153392 -15.546246 0
M  V30 37 H 14.660190 8.143711 -18.606570 0
M  V30 38 H 21.179604 5.949954 -19.641205 0
M  V30 39 H 9.641742 6.339461 -17.555913 0
M  V30 40 H 7.226430 5.549250 -18.017310 0
M  V30 41 H 6.989367 4.009684 -18.821427 0
M  V30 42 H 9.071852 5.120005 -19.619634 0
M  V30 43 H 9.442211 3.594465 -18.856022 0
M  V30 44 H 12.351330 4.179645 -16.699586 0
M  V30 45 H 7.707320 7.003283 -12.539232 0
M  V30 46 H 6.709161 6.392515 -11.261675 0
M  V30 47 H 20.002526 9.191842 -17.681251 0
M  V30 48 H 14.643127 4.395812 -17.610563 0
M  V30 49 H 6.143071 6.847055 -15.106282 0
M  V30 50 H 5.637859 5.186964 -15.255387 0
M  V30 51 H 5.190532 6.572468 -13.015065 0
M  V30 52 H 5.520888 4.876565 -12.920912 0
M  V30 53 H 16.321066 9.838862 -17.832797 0
M  V30 54 H 6.860196 2.870445 -13.094521 0
M  V30 55 H 6.351818 2.952522 -14.758992 0
M  V30 56 H 7.778950 2.008468 -14.316837 0
M  V30 57 H 13.168027 6.947982 -20.755344 0
M  V30 58 H 10.863305 6.742808 -19.848359 0
M  V30 59 H 9.773840 5.100423 -13.314123 0
M  V30 60 H 9.473043 3.470068 -12.786274 0
M  V30 61 H 6.639357 3.873320 -16.458659 0
M  V30 62 H 8.388847 6.335683 -14.688516 0
M  V30 63 H 7.876048 2.904154 -16.929714 0
M  V30 END ATOM
M  V30 BEGIN BOND
M  V30 1 1 5 2
M  V30 2 1 8 5
M  V30 3 1 8 6
M  V30 4 1 10 1
M  V30 5 1 12 11
M  V30 6 2 13 9
M  V30 7 1 14 11
M  V30 8 1 15 13
M  V30 9 1 16 15
M  V30 10 1 19 10
M  V30 11 1 19 18
M  V30 12 2 20 3
M  V30 13 1 7 21 CFG=3
M  V30 14 2 22 15
M  V30 15 1 23 22
M  V30 16 1 24 17
M  V30 17 1 25 1
M  V30 18 1 25 7
M  V30 19 2 26 4
M  V30 20 1 26 17
M  V30 21 1 27 6
M  V30 22 1 28 7
M  V30 23 1 28 18
M  V30 24 1 29 11
M  V30 25 2 29 17
M  V30 26 1 29 20
M  V30 27 1 30 5
M  V30 28 1 30 9
M  V30 29 2 30 23
M  V30 30 1 31 3
M  V30 31 1 31 16
M  V30 32 2 31 24
M  V30 33 1 32 2 CFG=3
M  V30 34 1 32 7
M  V30 35 1 32 27
M  V30 36 1 32 28
M  V30 37 1 33 1
M  V30 38 1 34 1
M  V30 39 1 35 2
M  V30 40 1 36 2
M  V30 41 1 37 3
M  V30 42 1 38 4
M  V30 43 1 5 39 CFG=1
M  V30 44 1 40 6
M  V30 45 1 41 6
M  V30 46 1 42 8
M  V30 47 1 43 8
M  V30 48 1 44 9
M  V30 49 1 45 10
M  V30 50 1 46 10
M  V30 51 1 47 11
M  V30 52 1 48 13
M  V30 53 1 49 18
M  V30 54 1 50 18
M  V30 55 1 51 19
M  V30 56 1 52 19
M  V30 57 1 53 20
M  V30 58 1 54 21
M  V30 59 1 55 21
M  V30 60 1 56 21
M  V30 61 1 57 22
M  V30 62 1 58 23
M  V30 63 1 59 25
M  V30 64 1 60 25
M  V30 65 1 61 27
M  V30 66 1 28 62 CFG=1
M  V30 67 1 63 27
M  V30 END BOND
M  V30 END CTAB
M  END
>  <i_epik_Tot_Q>  (1) 
1

>  <i_epik_Tot_abs_Q>  (1) 
1

>  <i_i_glide_confnum>  (1) 
4

>  <i_i_glide_lignum>  (1) 
91

>  <i_i_glide_posenum>  (1) 
222

>  <i_i_glide_rotatable_bonds>  (1) 
5

>  <i_lp_mmshare_version>  (1) 
72125

>  <i_m_source_file_index>  (1) 
58

>  <i_f3d_flags>  (1) 
0

>  <num_sample>  (1) 
100

>  <b_lp_Chiralities_Consistent>  (1) 
1

>  <r_epik_Charging_Adjusted_Penalty>  (1) 
0.05439887129790702

>  <r_epik_Ionization_Penalty>  (1) 
0.027199436685871044

>  <r_epik_Ionization_Penalty_Charging>  (1) 
0.02719943564895351

>  <r_epik_Ionization_Penalty_Neutral>  (1) 
1.0369175350527502e-09

>  <r_epik_State_Penalty>  (1) 
0.02719943564895351

>  <r_glide_ring_energy>  (1) 
0

>  <r_i_docking_score>  (1) 
-4.1308352957377181

>  <r_i_glide_ecoul>  (1) 
-2.0849281973323341

>  <r_i_glide_eff_state_penalty>  (1) 
0.02719943564895351

>  <r_i_glide_einternal>  (1) 
7.1357161222755963

>  <r_i_glide_emodel>  (1) 
-33.514071239260446

>  <r_i_glide_emodel_strain>  (1) 
0.064356705947574255

>  <r_i_glide_energy>  (1) 
-31.869541901003387

>  <r_i_glide_erotb>  (1) 
0.3073767375315366

>  <r_i_glide_esite>  (1) 
-0.026036035257493234

>  <r_i_glide_evdw>  (1) 
-29.784613703671052

>  <r_i_glide_gscore>  (1) 
-4.1580347313866719

>  <r_i_glide_gscore_strain>  (1) 
0

>  <r_i_glide_hbond>  (1) 
0

>  <r_i_glide_ligand_efficiency>  (1) 
-0.12908860299180369

>  <r_i_glide_ligand_efficiency_ln>  (1) 
-0.92500662503305497

>  <r_i_glide_ligand_efficiency_sa>  (1) 
-0.40983076837258897

>  <r_i_glide_lipo>  (1) 
-1.7848294142862309

>  <r_i_glide_metal>  (1) 
-0

>  <r_i_glide_rewards>  (1) 
-0.85257610459108135

>  <r_lp_Energy>  (1) 
78.297426000000002

>  <r_lp_tautomer_probability>  (1) 
1

>  <s_epik_cmdline>  (1) 
J2VwaWtfcHl0aG9uJywgJy1waHQnLCAnMS4wJywgJy1waCcsICc3LjQnLCAnLXRuJywgJzgnLCAnLW1hJywgJzUwMCcsICctaW1hZScsICc8aW5maWxlLm1hZT4nLCAnLW9tYWUnLCAnPG91dGZpbGUubWFlPic=

>  <s_epik_input>  (1) 
W0NIMl0xW0NIMl1bQ0gyXVtDSDJdW0NIMl1bQ0BIXTJbQ0BAXTEoW0NIM10pW0NAXTIzW0NIMl1bQ0BIXShbQ0gyXVtDSDJdW05IXTMpYyhbY0hdW2NIXTQpW2NIXVtjSF1jNE9jKFtjSF1bY0hdYzVbQ0hdKEYpRiluYzVcTj1OXFtIXQ==

>  <s_glide_docking_method>  (1) 
confgen

>  <s_i_glide_gridfile>  (1) 
gpcr_drd2_6luq_protein_autoprepared_prepared

>  <s_lp_Force_Field>  (1) 
S-OPLS

>  <s_lp_Variant>  (1) 
DiffSBDD_57-1

>  <s_m_source_file>  (1) 
generated_generic_title2_ligand_DiffSBDD_2026-06-23_prepared.sdf

>  <GenAI_Model>  (1) 
DiffSBDD

>  <Protein>  (1) 
generic_title2

$$$$
DiffSBDD_81
     RDKit          3D

  0  0  0  0  0  0  0  0  0  0999 V3000
M  V30 BEGIN CTAB
M  V30 COUNTS 68 71 0 0 1
M  V30 BEGIN ATOM
M  V30 1 C 7.393653 5.002616 -13.162682 0 CFG=1
M  V30 2 C 11.646019 8.525532 -7.765346 0
M  V30 3 O 11.774746 6.390215 -3.699769 0
M  V30 4 C 11.396046 6.522476 -5.056433 0
M  V30 5 C 7.855134 2.869364 -14.622285 0
M  V30 6 C 7.367890 1.176723 -16.189728 0
M  V30 7 C 8.175408 2.308610 -15.849371 0
M  V30 8 C 6.324755 5.473463 -14.189184 0
M  V30 9 O 11.100863 10.345817 -5.186536 0
M  V30 10 O 9.257981 3.532576 -12.785021 0
M  V30 11 C 9.329049 6.236123 -11.744764 0 CFG=2
M  V30 12 C 7.056361 -0.891317 -17.412684 0
M  V30 13 C 5.775418 2.228283 -12.581373 0 CFG=1
M  V30 14 C 8.048372 6.322391 -12.618397 0
M  V30 15 C 6.179739 1.577792 -13.985099 0
M  V30 16 O 12.175534 9.081354 -3.583169 0
M  V30 17 N 6.738411 4.324574 -12.012729 0
M  V30 18 C 9.229196 8.506764 -7.167442 0
M  V30 19 C 6.832826 2.253447 -13.989710 0
M  V30 20 C 10.922575 7.944008 -5.420570 0 CFG=1
M  V30 21 O 5.525751 3.634729 -12.455638 0
M  V30 22 C 8.447307 4.038172 -13.839156 0 CFG=2
M  V30 23 C 9.664749 7.533970 -11.003991 0
M  V30 24 C 6.329669 0.790352 -15.214679 0
M  V30 25 C 11.297030 8.543901 -9.238838 0 CFG=2
M  V30 26 C 10.750782 7.337869 -9.959925 0 CFG=2
M  V30 27 O 10.461677 5.990329 -12.548563 0
M  V30 28 O 8.892472 0.456779 -17.832929 0
M  V30 29 C 12.175245 7.777479 -10.196039 0
M  V30 30 C 11.806315 9.152740 -4.941230 0
M  V30 31 N 7.555731 0.477839 -17.402638 0
M  V30 32 N 10.580652 7.973459 -6.880220 0 CFG=2 CHG=1
M  V30 33 H 12.564248 7.957234 -7.613692 0
M  V30 34 H 11.865778 9.560478 -7.510037 0
M  V30 35 H 12.376969 7.090448 -3.478437 0
M  V30 36 H 10.565924 5.838236 -5.216866 0
M  V30 37 H 12.175425 6.173344 -5.722295 0
M  V30 38 H 8.966354 2.684194 -16.481208 0
M  V30 39 H 6.786261 6.029684 -15.005222 0
M  V30 40 H 5.777871 4.655827 -14.656032 0
M  V30 41 H 5.586148 6.129083 -13.724567 0
M  V30 42 H 11.699163 11.074167 -5.104922 0
M  V30 43 H 8.689619 3.064104 -12.189830 0
M  V30 44 H 9.214027 5.439130 -11.008879 0
M  V30 45 H 5.965680 -0.910708 -17.388180 0
M  V30 46 H 7.365273 -1.404917 -18.324064 0
M  V30 47 H 7.439949 -1.452669 -16.561204 0
M  V30 48 H 6.175399 1.701841 -11.725342 0
M  V30 49 H 8.264902 6.986579 -13.455093 0
M  V30 50 H 7.288946 6.855536 -12.043510 0
M  V30 51 H 11.393004 9.105539 -3.051253 0
M  V30 52 H 6.404194 5.024974 -11.362726 0
M  V30 53 H 9.227394 9.589903 -7.185023 0
M  V30 54 H 8.911287 8.174164 -8.149833 0
M  V30 55 H 8.478217 8.158009 -6.457236 0
M  V30 56 H 9.996902 7.992833 -4.876006 0
M  V30 57 H 9.076320 4.604771 -14.527225 0
M  V30 58 H 9.952313 8.319652 -11.702659 0
M  V30 59 H 8.782932 7.905622 -10.496077 0
M  V30 60 H 5.676361 -0.047987 -15.403370 0
M  V30 61 H 10.922264 9.504812 -9.584899 0
M  V30 62 H 10.608125 6.452148 -9.344357 0
M  V30 63 H 10.442347 5.072139 -12.808733 0
M  V30 64 H 9.361860 -0.040036 -17.180301 0
M  V30 65 H 12.968593 7.190222 -9.748468 0
M  V30 66 H 12.427634 8.231406 -11.148605 0
M  V30 67 H 12.747857 9.190446 -5.486742 0
M  V30 68 H 10.495029 7.000742 -7.140208 0
M  V30 END ATOM
M  V30 BEGIN BOND
M  V30 1 1 4 3
M  V30 2 2 7 5
M  V30 3 1 7 6
M  V30 4 1 1 8 CFG=3
M  V30 5 1 14 1
M  V30 6 1 14 11
M  V30 7 1 15 13
M  V30 8 1 17 1
M  V30 9 1 19 5
M  V30 10 1 19 13
M  V30 11 2 19 15
M  V30 12 1 20 4
M  V30 13 1 21 13
M  V30 14 1 21 17
M  V30 15 1 22 1
M  V30 16 1 22 5
M  V30 17 1 22 10
M  V30 18 1 23 11
M  V30 19 2 24 6
M  V30 20 1 24 15
M  V30 21 1 25 2
M  V30 22 1 26 23
M  V30 23 1 26 25
M  V30 24 1 27 11
M  V30 25 1 29 25
M  V30 26 1 29 26
M  V30 27 1 30 9
M  V30 28 1 30 16
M  V30 29 1 30 20
M  V30 30 1 31 6
M  V30 31 1 31 12
M  V30 32 1 31 28
M  V30 33 1 32 2
M  V30 34 1 32 18
M  V30 35 1 32 20
M  V30 36 1 33 2
M  V30 37 1 34 2
M  V30 38 1 35 3
M  V30 39 1 36 4
M  V30 40 1 37 4
M  V30 41 1 38 7
M  V30 42 1 39 8
M  V30 43 1 40 8
M  V30 44 1 41 8
M  V30 45 1 42 9
M  V30 46 1 43 10
M  V30 47 1 11 44 CFG=1
M  V30 48 1 45 12
M  V30 49 1 46 12
M  V30 50 1 47 12
M  V30 51 1 13 48 CFG=1
M  V30 52 1 49 14
M  V30 53 1 50 14
M  V30 54 1 51 16
M  V30 55 1 52 17
M  V30 56 1 53 18
M  V30 57 1 54 18
M  V30 58 1 55 18
M  V30 59 1 20 56 CFG=1
M  V30 60 1 22 57 CFG=3
M  V30 61 1 58 23
M  V30 62 1 59 23
M  V30 63 1 60 24
M  V30 64 1 25 61 CFG=3
M  V30 65 1 26 62 CFG=1
M  V30 66 1 63 27
M  V30 67 1 64 28
M  V30 68 1 65 29
M  V30 69 1 66 29
M  V30 70 1 67 30
M  V30 71 1 32 68 CFG=3
M  V30 END BOND
M  V30 END CTAB
M  END
>  <i_epik_Tot_Q>  (1) 
1

>  <i_epik_Tot_abs_Q>  (1) 
1

>  <i_i_glide_confnum>  (1) 
1936

>  <i_i_glide_lignum>  (1) 
143

>  <i_i_glide_posenum>  (1) 
306

>  <i_i_glide_rotatable_bonds>  (1) 
16

>  <i_lp_mmshare_version>  (1) 
72125

>  <i_m_source_file_index>  (1) 
82

>  <i_f3d_flags>  (1) 
0

>  <num_sample>  (1) 
100

>  <b_lp_Chiralities_Consistent>  (1) 
1

>  <r_epik_Charging_Adjusted_Penalty>  (1) 
0.61642058797261945

>  <r_epik_Ionization_Penalty>  (1) 
0.30960007796245242

>  <r_epik_Ionization_Penalty_Charging>  (1) 
0.30821029398630978

>  <r_epik_Ionization_Penalty_Neutral>  (1) 
0.0013897839761426282

>  <r_epik_State_Penalty>  (1) 
0.30821029398630967

>  <r_glide_ring_energy>  (1) 
0

>  <r_i_docking_score>  (1) 
-4.1298527034352244

>  <r_i_glide_ecoul>  (1) 
-2.1948574306354969

>  <r_i_glide_eff_state_penalty>  (1) 
0.30821029398630967

>  <r_i_glide_einternal>  (1) 
12.386024884162918

>  <r_i_glide_emodel>  (1) 
-27.153343102714459

>  <r_i_glide_emodel_strain>  (1) 
3.9304976071471174

>  <r_i_glide_energy>  (1) 
-28.425011523861659

>  <r_i_glide_erotb>  (1) 
0.97195684176611152

>  <r_i_glide_esite>  (1) 
0

>  <r_i_glide_evdw>  (1) 
-26.230154093226162

>  <r_i_glide_gscore>  (1) 
-4.4380629974215342

>  <r_i_glide_gscore_strain>  (1) 
0

>  <r_i_glide_hbond>  (1) 
-0.087287903719596924

>  <r_i_glide_ligand_efficiency>  (1) 
-0.12905789698235076

>  <r_i_glide_ligand_efficiency_ln>  (1) 
-0.92478659583207201

>  <r_i_glide_ligand_efficiency_sa>  (1) 
-0.40973328286917432

>  <r_i_glide_lipo>  (1) 
-2.2465537892077614

>  <r_i_glide_metal>  (1) 
-0

>  <r_i_glide_rewards>  (1) 
-1.4354418270036546

>  <r_lp_Energy>  (1) 
79.058359999999993

>  <s_epik_Chemistry_Notes>  (1) 
This compound contains an acetal/aminal-like group ( X-CH(R)-Y where X, Y are N, S, or O) that may be acid/base labile, releasing an aldehyde. This compound has a N-S or N-O group and may undergo hydrolysis at high or low pH.

>  <s_epik_cmdline>  (1) 
J2VwaWtfcHl0aG9uJywgJy1waHQnLCAnMS4wJywgJy1waCcsICc3LjQnLCAnLXRuJywgJzgnLCAnLW1hJywgJzUwMCcsICctaW1hZScsICc8aW5maWxlLm1hZT4nLCAnLW9tYWUnLCAnPG91dGZpbGUubWFlPic=

>  <s_epik_input>  (1) 
W0NIM11OKFtPSF0pYyhbY0hdMSlbY0hdYyhjMmMxMylbQ0BASF0yT1tOSF1bQ0BdKFtDSDNdKShbQ0BIXTNbT0hdKVtDSDJdW0NAQEhdKFtPSF0pW0NIMl1bQ0BASF0oW0NIMl00KVtDQEhdNFtDSDJdTihbQ0gzXSlbQ0BASF0oW0NIMl1bT0hdKVtDSF0oW09IXSlbT0hd

>  <s_glide_docking_method>  (1) 
confgen

>  <s_i_glide_gridfile>  (1) 
gpcr_drd2_6luq_protein_autoprepared_prepared

>  <s_lp_Force_Field>  (1) 
S-OPLS

>  <s_lp_Variant>  (1) 
DiffSBDD_81-1

>  <s_m_source_file>  (1) 
generated_generic_title2_ligand_DiffSBDD_2026-06-23_prepared.sdf

>  <GenAI_Model>  (1) 
DiffSBDD

>  <Protein>  (1) 
generic_title2

$$$$
DiffSBDD_30
     RDKit          3D

  0  0  0  0  0  0  0  0  0  0999 V3000
M  V30 BEGIN CTAB
M  V30 COUNTS 40 40 0 0 1
M  V30 BEGIN ATOM
M  V30 1 C 11.375411 7.685082 -4.791271 0
M  V30 2 C 10.594281 7.590595 -10.385029 0
M  V30 3 C 11.044724 8.577156 -8.188898 0
M  V30 4 N 6.329141 7.188046 -11.985026 0 CHG=1
M  V30 5 C 11.492636 6.561111 -3.952092 0
M  V30 6 C 5.854868 5.058613 -13.146180 0
M  V30 7 C 10.337509 8.596381 -6.827044 0
M  V30 8 N 10.150068 8.045085 -9.209461 0
M  V30 9 C 6.484413 5.721890 -11.910946 0 CFG=1
M  V30 10 O 11.782720 7.590226 -10.695954 0
M  V30 11 C 11.998878 6.700131 -2.645703 0
M  V30 12 C 11.777802 8.959126 -4.313408 0
M  V30 13 C 7.963553 5.295204 -11.820910 0
M  V30 14 C 9.545424 7.065649 -11.358113 0
M  V30 15 C 12.388968 7.964375 -2.173577 0
M  V30 16 C 12.277194 9.090542 -3.004814 0
M  V30 17 O 10.872240 7.518549 -6.064378 0
M  V30 18 N 8.717394 5.990230 -10.785016 0
M  V30 19 H 11.375382 9.576396 -8.479018 0
M  V30 20 H 11.954922 7.977110 -8.125514 0
M  V30 21 H 6.940075 7.571351 -12.689670 0
M  V30 22 H 5.367781 7.424117 -12.182519 0
M  V30 23 H 11.189939 5.590228 -4.311563 0
M  V30 24 H 5.860041 3.971615 -13.051565 0
M  V30 25 H 4.826911 5.367206 -13.303013 0
M  V30 26 H 6.401303 5.309980 -14.056259 0
M  V30 27 H 9.267540 8.414107 -6.940570 0
M  V30 28 H 10.391286 9.586878 -6.388777 0
M  V30 29 H 9.157019 8.017840 -9.009836 0
M  V30 30 H 5.953935 5.388918 -11.016925 0
M  V30 31 H 12.084474 5.833961 -2.005286 0
M  V30 32 H 11.708902 9.831006 -4.938986 0
M  V30 33 H 8.455221 5.366158 -12.793306 0
M  V30 34 H 7.992733 4.234261 -11.567512 0
M  V30 35 H 8.921848 7.898214 -11.682225 0
M  V30 36 H 10.081284 6.703425 -12.237779 0
M  V30 37 H 12.775265 8.071316 -1.172591 0
M  V30 38 H 12.575407 10.055299 -2.637936 0
M  V30 39 H 8.116344 6.317139 -10.030858 0
M  V30 40 H 6.575409 7.572774 -11.063749 0
M  V30 END ATOM
M  V30 BEGIN BOND
M  V30 1 2 5 1
M  V30 2 1 7 3
M  V30 3 1 8 2
M  V30 4 1 8 3
M  V30 5 1 9 4
M  V30 6 1 9 6
M  V30 7 2 10 2
M  V30 8 1 11 5
M  V30 9 1 12 1
M  V30 10 1 13 9
M  V30 11 1 14 2
M  V30 12 2 15 11
M  V30 13 2 16 12
M  V30 14 1 16 15
M  V30 15 1 17 1
M  V30 16 1 17 7
M  V30 17 1 18 13
M  V30 18 1 18 14
M  V30 19 1 19 3
M  V30 20 1 20 3
M  V30 21 1 21 4
M  V30 22 1 22 4
M  V30 23 1 23 5
M  V30 24 1 24 6
M  V30 25 1 25 6
M  V30 26 1 26 6
M  V30 27 1 27 7
M  V30 28 1 28 7
M  V30 29 1 29 8
M  V30 30 1 9 30 CFG=1
M  V30 31 1 31 11
M  V30 32 1 32 12
M  V30 33 1 33 13
M  V30 34 1 34 13
M  V30 35 1 35 14
M  V30 36 1 36 14
M  V30 37 1 37 15
M  V30 38 1 38 16
M  V30 39 1 39 18
M  V30 40 1 40 4
M  V30 END BOND
M  V30 END CTAB
M  END
>  <i_epik_Tot_Q>  (1) 
1

>  <i_epik_Tot_abs_Q>  (1) 
1

>  <i_i_glide_confnum>  (1) 
173

>  <i_i_glide_lignum>  (1) 
51

>  <i_i_glide_posenum>  (1) 
275

>  <i_i_glide_rotatable_bonds>  (1) 
9

>  <i_lp_mmshare_version>  (1) 
72125

>  <i_m_source_file_index>  (1) 
31

>  <i_f3d_flags>  (1) 
0

>  <num_sample>  (1) 
100

>  <b_lp_Chiralities_Consistent>  (1) 
1

>  <r_epik_Charging_Adjusted_Penalty>  (1) 
0.039337521643073213

>  <r_epik_Ionization_Penalty>  (1) 
0.013279431624003777

>  <r_epik_Ionization_Penalty_Charging>  (1) 
0.0075602006563197741

>  <r_epik_Ionization_Penalty_Neutral>  (1) 
0.0057192309676840029

>  <r_epik_State_Penalty>  (1) 
0.031777320986753441

>  <r_glide_ring_energy>  (1) 
0

>  <r_i_docking_score>  (1) 
-4.1248162290923585

>  <r_i_glide_ecoul>  (1) 
-10.991259268787767

>  <r_i_glide_eff_state_penalty>  (1) 
0.031777320986753441

>  <r_i_glide_einternal>  (1) 
12.881018736986547

>  <r_i_glide_emodel>  (1) 
-45.975873613394398

>  <r_i_glide_emodel_strain>  (1) 
2.9197872107782707

>  <r_i_glide_energy>  (1) 
-40.456412175190252

>  <r_i_glide_erotb>  (1) 
3.8578777710225149

>  <r_i_glide_esite>  (1) 
-0.18340044095573879

>  <r_i_glide_evdw>  (1) 
-29.465152906402484

>  <r_i_glide_gscore>  (1) 
-4.156593550079112

>  <r_i_glide_gscore_strain>  (1) 
0

>  <r_i_glide_hbond>  (1) 
-0.41846764506077994

>  <r_i_glide_ligand_efficiency>  (1) 
-0.2291564571717977

>  <r_i_glide_ligand_efficiency_ln>  (1) 
-1.0602627424282396

>  <r_i_glide_ligand_efficiency_sa>  (1) 
-0.60055981306038841

>  <r_i_glide_lipo>  (1) 
-2.2060650586231585

>  <r_i_glide_metal>  (1) 
-0

>  <r_i_glide_rewards>  (1) 
-2.0845916408236587

>  <r_lp_Energy>  (1) 
19.421258999999999

>  <r_lp_tautomer_probability>  (1) 
1

>  <s_epik_cmdline>  (1) 
J2VwaWtfcHl0aG9uJywgJy1waHQnLCAnMS4wJywgJy1waCcsICc3LjQnLCAnLXRuJywgJzgnLCAnLW1hJywgJzUwMCcsICctaW1hZScsICc8aW5maWxlLm1hZT4nLCAnLW9tYWUnLCAnPG91dGZpbGUubWFlPic=

>  <s_epik_input>  (1) 
W2NIXTFbY0hdW2NIXVtjSF1bY0hdYzFPW0NIMl1bQ0gyXVtOSF1DKD1PKVtDSDJdW05IXVtDSDJdW0NAQEhdKFtOSDJdKVtDSDNd

>  <s_glide_docking_method>  (1) 
confgen

>  <s_i_glide_gridfile>  (1) 
gpcr_drd2_6luq_protein_autoprepared_prepared

>  <s_lp_Force_Field>  (1) 
S-OPLS

>  <s_lp_Variant>  (1) 
DiffSBDD_30-1

>  <s_m_source_file>  (1) 
generated_generic_title2_ligand_DiffSBDD_2026-06-23_prepared.sdf

>  <GenAI_Model>  (1) 
DiffSBDD

>  <Protein>  (1) 
generic_title2

$$$$
DiffSBDD_31
     RDKit          3D

  0  0  0  0  0  0  0  0  0  0999 V3000
M  V30 BEGIN CTAB
M  V30 COUNTS 103 109 0 0 1
M  V30 BEGIN ATOM
M  V30 1 C 10.999128 6.068378 -22.330651 0
M  V30 2 C 9.774968 4.606744 -16.294637 0
M  V30 3 C 9.695174 6.919216 -8.375122 0 CFG=2
M  V30 4 C 9.225111 5.123623 -19.960787 0
M  V30 5 O 9.953862 5.590224 -14.105259 0
M  V30 6 C 5.323091 7.419241 -17.822048 0
M  V30 7 C 11.862320 5.944482 -21.067839 0
M  V30 8 C 6.075790 6.362357 -12.078387 0
M  V30 9 C 9.499876 6.350671 -22.081859 0 CFG=1
M  V30 10 C 11.720083 4.570554 -20.443821 0 CFG=2
M  V30 11 C 4.789127 7.856730 -19.196065 0 CFG=1
M  V30 12 C 10.388195 4.154696 -19.870140 0 CFG=1
M  V30 13 C 11.295427 4.853626 -16.499390 0
M  V30 14 C 13.187880 5.948475 -17.852942 0 CFG=1
M  V30 15 C 6.513273 6.442939 -17.811475 0
M  V30 16 C 11.595431 4.309522 -18.956945 0 CFG=2
M  V30 17 C 8.575395 3.064941 -13.030993 0
M  V30 18 C 5.679420 8.399094 -20.297052 0 CFG=2
M  V30 19 C 7.044617 4.836731 -13.843839 0
M  V30 20 C 5.630598 5.440460 -10.941118 0
M  V30 21 C 10.656273 7.351153 -9.499475 0
M  V30 22 O 10.259350 7.143589 -11.857416 0
M  V30 23 O 8.833375 5.340256 -21.315544 0
M  V30 24 N 6.889037 7.629967 -20.676409 0 CFG=1 CHG=1
M  V30 25 C 11.738418 5.386823 -17.881833 0 CFG=1
M  V30 26 C 9.905618 6.859907 -10.718783 0
M  V30 27 C 8.213026 3.931721 -14.274502 0 CFG=1
M  V30 28 C 6.108894 6.452744 -21.037886 0
M  V30 29 C 6.736719 4.395107 -10.774458 0
M  V30 30 C 7.372828 5.745193 -12.625078 0 CFG=2
M  V30 31 C 7.750092 8.238931 -21.716232 0
M  V30 32 C 8.676267 6.012937 -10.423791 0 CFG=1
M  V30 33 C 13.362513 7.225498 -17.011928 0
M  V30 34 C 9.217734 7.789041 -21.588384 0
M  V30 35 C 4.876452 7.133893 -20.521184 0 CFG=1
M  V30 36 O 9.707892 4.556417 -8.785023 0
M  V30 37 C 9.022993 3.890812 -11.817339 0
M  V30 38 O 14.102146 4.971147 -17.397778 0
M  V30 39 C 8.014878 4.990399 -11.411742 0 CFG=1
M  V30 40 C 9.372296 4.790229 -14.821125 0
M  V30 41 C 10.378441 6.705553 -7.012988 0
M  V30 42 C 4.193031 6.863588 -16.950305 0
M  V30 43 C 8.899034 5.701727 -8.926069 0 CFG=1
M  V30 44 H 11.103579 5.161801 -22.928497 0
M  V30 45 H 11.404371 6.869242 -22.950596 0
M  V30 46 H 9.493509 3.616484 -16.652028 0
M  V30 47 H 9.204570 5.331770 -16.874301 0
M  V30 48 H 8.975634 7.729465 -8.240726 0
M  V30 49 H 8.386686 4.670552 -19.433009 0
M  V30 50 H 9.431557 6.059131 -19.450184 0
M  V30 51 H 5.657783 8.328122 -17.320061 0
M  V30 52 H 12.912020 6.085530 -21.326773 0
M  V30 53 H 11.615647 6.729321 -20.354228 0
M  V30 54 H 5.311703 6.470843 -12.848017 0
M  V30 55 H 6.262023 7.363509 -11.687040 0
M  V30 56 H 9.035961 6.283251 -23.066963 0
M  V30 57 H 12.230335 3.797056 -21.015448 0
M  V30 58 H 3.848900 8.390225 -19.079407 0
M  V30 59 H 10.096136 3.131088 -20.098099 0
M  V30 60 H 11.659287 5.561044 -15.758539 0
M  V30 61 H 11.832972 3.931748 -16.280953 0
M  V30 62 H 13.485360 6.202763 -18.869350 0
M  V30 63 H 6.256158 5.485716 -18.263644 0
M  V30 64 H 7.396560 6.846895 -18.297719 0
M  V30 65 H 6.818651 6.232467 -16.788308 0
M  V30 66 H 12.048316 3.370832 -18.642846 0
M  V30 67 H 7.704095 2.465762 -12.770204 0
M  V30 68 H 9.348697 2.318556 -13.185026 0
M  V30 69 H 5.401792 9.231394 -20.942158 0
M  V30 70 H 6.185366 4.204163 -13.616724 0
M  V30 71 H 6.725122 5.459533 -14.677654 0
M  V30 72 H 4.685067 4.970987 -11.188745 0
M  V30 73 H 5.485422 5.990357 -10.013410 0
M  V30 74 H 10.816740 8.428897 -9.523704 0
M  V30 75 H 11.615937 6.841144 -9.430333 0
M  V30 76 H 11.095601 6.227370 -18.132028 0
M  V30 77 H 7.875436 3.274675 -15.076043 0
M  V30 78 H 6.087570 6.250079 -22.109798 0
M  V30 79 H 6.400738 5.557023 -20.494288 0
M  V30 80 H 6.411237 3.513972 -11.321108 0
M  V30 81 H 6.860920 4.080029 -9.739174 0
M  V30 82 H 8.007729 6.561092 -12.964876 0
M  V30 83 H 7.731972 9.320326 -21.570532 0
M  V30 84 H 7.357429 8.065265 -22.719412 0
M  V30 85 H 7.964086 6.790226 -10.471731 0
M  V30 86 H 12.634406 7.987290 -17.293096 0
M  V30 87 H 13.255992 7.040236 -15.943119 0
M  V30 88 H 14.354289 7.652655 -17.161916 0
M  V30 89 H 9.576582 7.947024 -20.572065 0
M  V30 90 H 9.810296 8.470907 -22.200261 0
M  V30 91 H 4.045270 7.215544 -21.218141 0
M  V30 92 H 9.305370 3.849672 -9.265069 0
M  V30 93 H 10.001660 4.323848 -12.015743 0
M  V30 94 H 9.207231 3.211399 -10.989723 0
M  V30 95 H 14.011483 4.202961 -17.940273 0
M  V30 96 H 11.159789 5.946953 -7.067166 0
M  V30 97 H 10.838475 7.628552 -6.659967 0
M  V30 98 H 9.655018 6.388135 -6.261117 0
M  V30 99 H 3.735906 5.990228 -17.404013 0
M  V30 100 H 4.575415 6.566398 -15.975168 0
M  V30 101 H 3.409539 7.604682 -16.786110 0
M  V30 102 H 7.960110 5.574156 -8.385590 0
M  V30 103 H 7.425112 7.444838 -19.841467 0
M  V30 END ATOM
M  V30 BEGIN BOND
M  V30 1 1 7 1
M  V30 2 1 9 1
M  V30 3 1 10 7
M  V30 4 1 11 6
M  V30 5 1 12 4
M  V30 6 1 12 10
M  V30 7 1 13 2
M  V30 8 1 15 6
M  V30 9 1 16 10
M  V30 10 1 16 12
M  V30 11 1 18 11
M  V30 12 1 20 8
M  V30 13 1 21 3
M  V30 14 1 23 4
M  V30 15 1 23 9
M  V30 16 1 24 18
M  V30 17 1 25 13
M  V30 18 1 25 14
M  V30 19 1 25 16
M  V30 20 1 26 21
M  V30 21 2 26 22
M  V30 22 1 27 17
M  V30 23 1 27 19
M  V30 24 1 28 24
M  V30 25 1 29 20
M  V30 26 1 30 8
M  V30 27 1 30 19
M  V30 28 1 31 24
M  V30 29 1 32 26
M  V30 30 1 33 14
M  V30 31 1 34 9
M  V30 32 1 34 31
M  V30 33 1 35 11
M  V30 34 1 35 18
M  V30 35 1 35 28
M  V30 36 1 37 17
M  V30 37 1 38 14
M  V30 38 1 39 29 CFG=1
M  V30 39 1 39 30
M  V30 40 1 39 32
M  V30 41 1 39 37
M  V30 42 1 40 2
M  V30 43 2 40 5
M  V30 44 1 40 27
M  V30 45 1 41 3
M  V30 46 1 42 6
M  V30 47 1 43 3
M  V30 48 1 43 32
M  V30 49 1 43 36
M  V30 50 1 44 1
M  V30 51 1 45 1
M  V30 52 1 46 2
M  V30 53 1 47 2
M  V30 54 1 3 48 CFG=1
M  V30 55 1 49 4
M  V30 56 1 50 4
M  V30 57 1 51 6
M  V30 58 1 52 7
M  V30 59 1 53 7
M  V30 60 1 54 8
M  V30 61 1 55 8
M  V30 62 1 9 56 CFG=3
M  V30 63 1 10 57 CFG=3
M  V30 64 1 11 58 CFG=1
M  V30 65 1 12 59 CFG=3
M  V30 66 1 60 13
M  V30 67 1 61 13
M  V30 68 1 14 62 CFG=3
M  V30 69 1 63 15
M  V30 70 1 64 15
M  V30 71 1 65 15
M  V30 72 1 16 66 CFG=1
M  V30 73 1 67 17
M  V30 74 1 68 17
M  V30 75 1 18 69 CFG=3
M  V30 76 1 70 19
M  V30 77 1 71 19
M  V30 78 1 72 20
M  V30 79 1 73 20
M  V30 80 1 74 21
M  V30 81 1 75 21
M  V30 82 1 25 76 CFG=3
M  V30 83 1 27 77 CFG=3
M  V30 84 1 78 28
M  V30 85 1 79 28
M  V30 86 1 80 29
M  V30 87 1 81 29
M  V30 88 1 30 82 CFG=3
M  V30 89 1 83 31
M  V30 90 1 84 31
M  V30 91 1 32 85 CFG=1
M  V30 92 1 86 33
M  V30 93 1 87 33
M  V30 94 1 88 33
M  V30 95 1 89 34
M  V30 96 1 90 34
M  V30 97 1 35 91 CFG=3
M  V30 98 1 92 36
M  V30 99 1 93 37
M  V30 100 1 94 37
M  V30 101 1 95 38
M  V30 102 1 96 41
M  V30 103 1 97 41
M  V30 104 1 98 41
M  V30 105 1 99 42
M  V30 106 1 100 42
M  V30 107 1 101 42
M  V30 108 1 43 102 CFG=1
M  V30 109 1 24 103 CFG=1
M  V30 END BOND
M  V30 END CTAB
M  END
>  <i_epik_Tot_Q>  (1) 
1

>  <i_epik_Tot_abs_Q>  (1) 
1

>  <i_i_glide_confnum>  (1) 
970

>  <i_i_glide_lignum>  (1) 
53

>  <i_i_glide_posenum>  (1) 
239

>  <i_i_glide_rotatable_bonds>  (1) 
13

>  <i_lp_mmshare_version>  (1) 
72125

>  <i_m_source_file_index>  (1) 
32

>  <i_f3d_flags>  (1) 
0

>  <num_sample>  (1) 
100

>  <b_lp_Chiralities_Consistent>  (1) 
1

>  <r_epik_Charging_Adjusted_Penalty>  (1) 
0.00082013732971917403

>  <r_epik_Ionization_Penalty>  (1) 
0.00082046965520535795

>  <r_epik_Ionization_Penalty_Charging>  (1) 
0.00082013732971917403

>  <r_epik_Ionization_Penalty_Neutral>  (1) 
3.3232548618397322e-07

>  <r_epik_State_Penalty>  (1) 
-0

>  <r_glide_ring_energy>  (1) 
1.7158683604837299

>  <r_i_docking_score>  (1) 
-4.1234045957337244

>  <r_i_glide_ecoul>  (1) 
-1.3125248503899716

>  <r_i_glide_eff_state_penalty>  (1) 
-0

>  <r_i_glide_einternal>  (1) 
30.135648517736151

>  <r_i_glide_emodel>  (1) 
-17.548886036118116

>  <r_i_glide_emodel_strain>  (1) 
1.4093281225817123

>  <r_i_glide_energy>  (1) 
-27.595315102683493

>  <r_i_glide_erotb>  (1) 
0.46956192147436254

>  <r_i_glide_esite>  (1) 
-0.063717171871857575

>  <r_i_glide_evdw>  (1) 
-26.282790252293523

>  <r_i_glide_gscore>  (1) 
-4.1234045957337244

>  <r_i_glide_gscore_strain>  (1) 
0

>  <r_i_glide_hbond>  (1) 
0

>  <r_i_glide_ligand_efficiency>  (1) 
-0.095893130133342427

>  <r_i_glide_ligand_efficiency_ln>  (1) 
-0.86604311844453319

>  <r_i_glide_ligand_efficiency_sa>  (1) 
-0.33595180611356368

>  <r_i_glide_lipo>  (1) 
-2.263327634722589

>  <r_i_glide_metal>  (1) 
-0

>  <r_i_glide_rewards>  (1) 
-0.75490347044046902

>  <r_lp_Energy>  (1) 
46.113288999999995

>  <r_lp_tautomer_probability>  (1) 
1

>  <s_epik_cmdline>  (1) 
J2VwaWtfcHl0aG9uJywgJy1waHQnLCAnMS4wJywgJy1waCcsICc3LjQnLCAnLXRuJywgJzgnLCAnLW1hJywgJzUwMCcsICctaW1hZScsICc8aW5maWxlLm1hZT4nLCAnLW9tYWUnLCAnPG91dGZpbGUubWFlPic=

>  <s_epik_input>  (1) 
W0NIM11bQ0hdKFtDSDNdKVtDQEBIXTFbQ0BASF0oW0NAQEhdMTIpW0NIMl1OMltDSDJdW0NIMl1bQ0BASF0oW0NIMl1bQ0gyXTMpT1tDSDJdW0NAQEhdKFtDQEBIXTM0KVtDQEBIXTRbQ0BIXShbQ0BASF0oW0NIM10pW09IXSlbQ0gyXVtDSDJdQyg9TylbQ0BASF0oW0NIMl1bQ0gyXTUpW0NIMl1bQ0BASF0oW0NIMl1bQ0gyXVtDSDJdNilbQ0BdNTZbQ0BASF0oW0NASF03W09IXSlDKD1PKVtDSDJdW0NAQEhdN1tDSDNd

>  <s_glide_docking_method>  (1) 
confgen

>  <s_i_glide_gridfile>  (1) 
gpcr_drd2_6luq_protein_autoprepared_prepared

>  <s_lp_Force_Field>  (1) 
S-OPLS

>  <s_lp_Variant>  (1) 
DiffSBDD_31-2

>  <s_m_source_file>  (1) 
generated_generic_title2_ligand_DiffSBDD_2026-06-23_prepared.sdf

>  <GenAI_Model>  (1) 
DiffSBDD

>  <Protein>  (1) 
generic_title2

$$$$
DiffSBDD_94
     RDKit          3D

  0  0  0  0  0  0  0  0  0  0999 V3000
M  V30 BEGIN CTAB
M  V30 COUNTS 65 69 0 0 1
M  V30 BEGIN ATOM
M  V30 1 C 10.284259 8.560959 -10.100902 0
M  V30 2 C 7.307714 5.311376 -12.644398 0
M  V30 3 O 9.104997 1.625114 -19.513513 0
M  V30 4 C 9.914709 7.843594 -11.417474 0
M  V30 5 C 8.302724 2.267966 -18.544720 0 CFG=1
M  V30 6 N 11.284515 6.390229 -3.740960 0
M  V30 7 C 11.780480 6.730874 -2.523128 0
M  V30 8 C 10.594863 7.614978 -8.967254 0 CFG=2
M  V30 9 C 12.033490 8.422439 -4.597803 0
M  V30 10 C 8.174876 3.769581 -18.708960 0 CFG=1
M  V30 11 Cl 9.863295 5.590229 -7.585004 0
M  V30 12 C 7.057034 2.848589 -19.165722 0
M  V30 13 C 12.182292 9.309698 -5.826791 0 CFG=2
M  V30 14 C 9.275426 4.817340 -13.154298 0
M  V30 15 C 8.637530 6.093061 -12.596601 0
M  V30 16 C 9.420620 6.681400 -8.841555 0 CFG=2
M  V30 17 C 8.233991 4.017467 -16.126934 0 CFG=1
M  V30 18 C 11.189577 10.444755 -5.728491 0
M  V30 19 C 12.437142 7.944481 -2.287760 0
M  V30 20 O 8.450494 4.833566 -10.021448 0
M  V30 21 N 11.375408 7.248251 -4.775027 0
M  V30 22 N 7.940548 4.453489 -13.650190 0
M  V30 23 C 7.978397 4.681039 -17.505974 0
M  V30 24 N 9.154995 6.585526 -11.294670 0
M  V30 25 F 8.896312 4.369205 -19.726620 0
M  V30 26 C 7.633039 4.905849 -15.011461 0
M  V30 27 C 12.575394 8.818201 -3.363140 0
M  V30 28 C 8.344890 1.620642 -17.174128 0
M  V30 29 O 6.975422 2.129391 -15.263725 0
M  V30 30 C 8.975414 5.941566 -10.111753 0
M  V30 31 C 12.113474 8.597030 -7.215971 0
M  V30 32 C 7.770544 2.544661 -16.103191 0
M  V30 33 N 10.735146 8.325269 -7.669260 0 CHG=1
M  V30 34 H 9.442401 9.190240 -9.810552 0
M  V30 35 H 11.157486 9.190233 -10.259696 0
M  V30 36 H 6.453015 5.852815 -13.050971 0
M  V30 37 H 7.027626 4.691542 -11.797417 0
M  V30 38 H 8.647444 0.856871 -19.819567 0
M  V30 39 H 10.833900 7.590147 -11.947171 0
M  V30 40 H 9.375512 8.543671 -12.057747 0
M  V30 41 H 11.648857 6.011902 -1.727027 0
M  V30 42 H 11.494273 7.040199 -9.195563 0
M  V30 43 H 6.913408 2.734749 -20.238195 0
M  V30 44 H 6.142439 2.832160 -18.576119 0
M  V30 45 H 13.185156 9.735570 -5.755524 0
M  V30 46 H 9.594040 4.096727 -12.399361 0
M  V30 47 H 9.994158 4.944984 -13.963214 0
M  V30 48 H 8.575430 6.886125 -13.341334 0
M  V30 49 H 8.575432 7.206782 -8.416561 0
M  V30 50 H 9.314506 3.983420 -15.984659 0
M  V30 51 H 11.273462 10.982295 -4.785069 0
M  V30 52 H 11.375415 11.156132 -6.532292 0
M  V30 53 H 10.188045 10.017947 -5.773850 0
M  V30 54 H 12.828715 8.189928 -1.311645 0
M  V30 55 H 6.967828 5.089797 -17.551848 0
M  V30 56 H 8.649870 5.533927 -17.609133 0
M  V30 57 H 7.949876 5.937611 -15.167484 0
M  V30 58 H 6.547155 4.906209 -15.125426 0
M  V30 59 H 13.087659 9.762223 -3.252227 0
M  V30 60 H 7.791454 0.680541 -17.193101 0
M  V30 61 H 9.377322 1.391808 -16.913331 0
M  V30 62 H 12.620362 7.639296 -7.187380 0
M  V30 63 H 12.611864 9.190219 -7.980620 0
M  V30 64 H 10.186526 9.173021 -7.690782 0
M  V30 65 H 10.334808 7.709502 -6.970823 0
M  V30 END ATOM
M  V30 BEGIN BOND
M  V30 1 1 4 1
M  V30 2 1 5 3 CFG=3
M  V30 3 1 7 6
M  V30 4 1 8 1
M  V30 5 1 10 5
M  V30 6 1 12 5
M  V30 7 1 12 10
M  V30 8 1 13 9
M  V30 9 1 15 2
M  V30 10 1 15 14
M  V30 11 1 16 8
M  V30 12 1 16 11
M  V30 13 1 18 13
M  V30 14 2 19 7
M  V30 15 2 21 6
M  V30 16 1 21 9
M  V30 17 1 22 2
M  V30 18 1 22 14
M  V30 19 1 23 10
M  V30 20 1 23 17
M  V30 21 1 24 4
M  V30 22 1 24 15
M  V30 23 1 10 25 CFG=3
M  V30 24 1 26 17
M  V30 25 1 26 22
M  V30 26 2 27 9
M  V30 27 1 27 19
M  V30 28 1 28 5
M  V30 29 1 30 16
M  V30 30 2 30 20
M  V30 31 1 30 24
M  V30 32 1 31 13
M  V30 33 1 32 17
M  V30 34 1 32 28
M  V30 35 2 32 29
M  V30 36 1 33 8
M  V30 37 1 33 31
M  V30 38 1 34 1
M  V30 39 1 35 1
M  V30 40 1 36 2
M  V30 41 1 37 2
M  V30 42 1 38 3
M  V30 43 1 39 4
M  V30 44 1 40 4
M  V30 45 1 41 7
M  V30 46 1 8 42 CFG=3
M  V30 47 1 43 12
M  V30 48 1 44 12
M  V30 49 1 13 45 CFG=1
M  V30 50 1 46 14
M  V30 51 1 47 14
M  V30 52 1 48 15
M  V30 53 1 16 49 CFG=1
M  V30 54 1 17 50 CFG=1
M  V30 55 1 51 18
M  V30 56 1 52 18
M  V30 57 1 53 18
M  V30 58 1 54 19
M  V30 59 1 55 23
M  V30 60 1 56 23
M  V30 61 1 57 26
M  V30 62 1 58 26
M  V30 63 1 59 27
M  V30 64 1 60 28
M  V30 65 1 61 28
M  V30 66 1 62 31
M  V30 67 1 63 31
M  V30 68 1 64 33
M  V30 69 1 65 33
M  V30 END BOND
M  V30 END CTAB
M  END
>  <i_epik_Tot_Q>  (1) 
1

>  <i_epik_Tot_abs_Q>  (1) 
1

>  <i_i_glide_confnum>  (1) 
583

>  <i_i_glide_lignum>  (1) 
180

>  <i_i_glide_posenum>  (1) 
331

>  <i_i_glide_rotatable_bonds>  (1) 
8

>  <i_lp_mmshare_version>  (1) 
72125

>  <i_m_source_file_index>  (1) 
95

>  <i_f3d_flags>  (1) 
0

>  <num_sample>  (1) 
100

>  <b_lp_Chiralities_Consistent>  (1) 
1

>  <r_epik_Charging_Adjusted_Penalty>  (1) 
0.72185146143454548

>  <r_epik_Ionization_Penalty>  (1) 
0.57657023161056387

>  <r_epik_Ionization_Penalty_Charging>  (1) 
0.10328520629071786

>  <r_epik_Ionization_Penalty_Neutral>  (1) 
0.47328502531984601

>  <r_epik_State_Penalty>  (1) 
0.61856625514382757

>  <r_glide_ring_energy>  (1) 
0.91589954985557798

>  <r_i_docking_score>  (1) 
-4.1195905731297584

>  <r_i_glide_ecoul>  (1) 
0.28222549500946092

>  <r_i_glide_eff_state_penalty>  (1) 
0.61856625514382757

>  <r_i_glide_einternal>  (1) 
4.6652507493462281

>  <r_i_glide_emodel>  (1) 
-37.697567168566628

>  <r_i_glide_emodel_strain>  (1) 
3.2427401216693568

>  <r_i_glide_energy>  (1) 
-30.417779033699084

>  <r_i_glide_erotb>  (1) 
0.52602338862990483

>  <r_i_glide_esite>  (1) 
-0.14228746283750301

>  <r_i_glide_evdw>  (1) 
-30.700004528708543

>  <r_i_glide_gscore>  (1) 
-4.7381568282735858

>  <r_i_glide_gscore_strain>  (1) 
0

>  <r_i_glide_hbond>  (1) 
0

>  <r_i_glide_ligand_efficiency>  (1) 
-0.12483607797362904

>  <r_i_glide_ligand_efficiency_ln>  (1) 
-0.91617561336563291

>  <r_i_glide_ligand_efficiency_sa>  (1) 
-0.40041600572245101

>  <r_i_glide_lipo>  (1) 
-2.6708878382647163

>  <r_i_glide_metal>  (1) 
-0

>  <r_i_glide_rewards>  (1) 
-0.95833851361726319

>  <r_lp_Energy>  (1) 
45.717675

>  <r_lp_tautomer_probability>  (1) 
0.99999998000000001

>  <s_epik_cmdline>  (1) 
J2VwaWtfcHl0aG9uJywgJy1waHQnLCAnMS4wJywgJy1waCcsICc3LjQnLCAnLXRuJywgJzgnLCAnLW1hJywgJzUwMCcsICctaW1hZScsICc8aW5maWxlLm1hZT4nLCAnLW9tYWUnLCAnPG91dGZpbGUubWFlPic=

>  <s_epik_input>  (1) 
W2NIXTFbY0hdW2NIXW5uYzFbQ0BIXShbQ0gzXSlbQ0gyXVtOSF1bQ0BASF0yW0NIMl1bQ0gyXU4oQyg9TylbQ0BIXTJDbClbQ0hdM1tDSDJdTihbQ0gyXTMpW0NIMl1bQ0BASF0oQyg9TylbQ0gyXTQpW0NIMl1bQ0BdKEYpKFtDSDJdNSlbQ0BAXTQ1W09IXQ==

>  <s_glide_docking_method>  (1) 
confgen

>  <s_i_glide_gridfile>  (1) 
gpcr_drd2_6luq_protein_autoprepared_prepared

>  <s_lp_Force_Field>  (1) 
S-OPLS

>  <s_lp_Variant>  (1) 
DiffSBDD_94-3

>  <s_m_source_file>  (1) 
generated_generic_title2_ligand_DiffSBDD_2026-06-23_prepared.sdf

>  <GenAI_Model>  (1) 
DiffSBDD

>  <Protein>  (1) 
generic_title2

$$$$
DiffSBDD_61
     RDKit          3D

  0  0  0  0  0  0  0  0  0  0999 V3000
M  V30 BEGIN CTAB
M  V30 COUNTS 46 47 0 0 1
M  V30 BEGIN ATOM
M  V30 1 C 10.142729 6.957650 -11.984738 0
M  V30 2 O 5.375627 5.006412 -12.994077 0 CHG=-1
M  V30 3 C 5.633044 4.725759 -20.596280 0
M  V30 4 O 6.971101 5.590126 -11.056796 0
M  V30 5 N 10.284427 7.147772 -9.498449 0 CFG=1 CHG=1
M  V30 6 O 6.013043 4.011806 -21.547210 0 CHG=-1
M  V30 7 C 5.761525 6.969187 -15.866089 0
M  V30 8 C 9.375698 6.881351 -10.652149 0 CFG=2
M  V30 9 P 8.549037 5.189629 -10.549039 0
M  V30 10 F 7.950351 4.337904 -17.217600 0
M  V30 11 C 10.308527 8.307730 -7.356214 0
M  V30 12 N 6.403006 4.758923 -19.476628 0
M  V30 13 O 5.483525 7.405315 -12.140747 0
M  V30 14 O 9.184798 4.286298 -11.533866 0 CHG=-1
M  V30 15 C 5.138381 6.527502 -18.182811 0
M  V30 16 O 7.367683 6.524177 -13.614077 0
M  V30 17 F 12.575350 7.990229 -7.891279 0
M  V30 18 P 6.175515 6.136177 -12.463234 0
M  V30 19 C 6.157528 5.532154 -18.269150 0
M  V30 20 C 6.975053 5.276826 -17.143818 0
M  V30 21 C 11.072674 8.389732 -9.609987 0
M  V30 22 C 9.708478 7.127296 -8.125482 0
M  V30 23 C 11.509145 8.726971 -8.194251 0 CFG=1
M  V30 24 C 6.773353 5.988871 -15.942092 0
M  V30 25 O 4.575378 5.381114 -20.664092 0
M  V30 26 C 7.648459 5.696384 -14.728978 0
M  V30 27 C 4.950292 7.235613 -16.981628 0
M  V30 28 O 8.512148 4.790348 -9.124456 0
M  V30 29 H 10.298192 7.990258 -12.281929 0
M  V30 30 H 11.105464 6.449077 -11.941415 0
M  V30 31 H 9.591247 6.491317 -12.794117 0
M  V30 32 H 5.606009 7.518468 -14.948766 0
M  V30 33 H 8.597718 7.643925 -10.697857 0
M  V30 34 H 9.579334 9.118038 -7.319644 0
M  V30 35 H 10.571354 8.054552 -6.328555 0
M  V30 36 H 7.221076 4.169756 -19.468699 0
M  V30 37 H 4.509491 6.759869 -19.015007 0
M  V30 38 H 11.912376 8.295736 -10.299616 0
M  V30 39 H 10.414289 9.174316 -9.974138 0
M  V30 40 H 8.620065 7.176012 -8.112105 0
M  V30 41 H 9.996809 6.192984 -7.642115 0
M  V30 42 H 11.775402 9.773552 -8.066387 0
M  V30 43 H 7.577679 4.642860 -14.460033 0
M  V30 44 H 8.684778 5.872686 -15.017468 0
M  V30 45 H 4.178596 7.989055 -16.916690 0
M  V30 46 H 10.934410 6.375778 -9.497034 0
M  V30 END ATOM
M  V30 BEGIN BOND
M  V30 1 1 6 3
M  V30 2 1 8 1
M  V30 3 1 8 5
M  V30 4 1 9 4
M  V30 5 1 9 8
M  V30 6 1 12 3
M  V30 7 1 14 9
M  V30 8 1 18 2
M  V30 9 1 18 4
M  V30 10 2 18 13
M  V30 11 1 18 16
M  V30 12 1 19 12
M  V30 13 2 19 15
M  V30 14 1 20 10
M  V30 15 1 20 19
M  V30 16 1 21 5
M  V30 17 1 22 5
M  V30 18 1 22 11
M  V30 19 1 23 11
M  V30 20 1 23 17
M  V30 21 1 23 21
M  V30 22 1 24 7
M  V30 23 2 24 20
M  V30 24 2 25 3
M  V30 25 1 26 16
M  V30 26 1 26 24
M  V30 27 2 27 7
M  V30 28 1 27 15
M  V30 29 2 28 9
M  V30 30 1 29 1
M  V30 31 1 30 1
M  V30 32 1 31 1
M  V30 33 1 32 7
M  V30 34 1 8 33 CFG=3
M  V30 35 1 34 11
M  V30 36 1 35 11
M  V30 37 1 36 12
M  V30 38 1 37 15
M  V30 39 1 38 21
M  V30 40 1 39 21
M  V30 41 1 40 22
M  V30 42 1 41 22
M  V30 43 1 23 42 CFG=3
M  V30 44 1 43 26
M  V30 45 1 44 26
M  V30 46 1 45 27
M  V30 47 1 5 46 CFG=1
M  V30 END BOND
M  V30 END CTAB
M  END
>  <i_epik_Tot_Q>  (1) 
-2

>  <i_epik_Tot_abs_Q>  (1) 
4

>  <i_i_glide_confnum>  (1) 
462

>  <i_i_glide_lignum>  (1) 
97

>  <i_i_glide_posenum>  (1) 
144

>  <i_i_glide_rotatable_bonds>  (1) 
9

>  <i_lp_mmshare_version>  (1) 
72125

>  <i_m_source_file_index>  (1) 
62

>  <i_f3d_flags>  (1) 
0

>  <num_sample>  (1) 
100

>  <b_lp_Chiralities_Consistent>  (1) 
1

>  <r_epik_Charging_Adjusted_Penalty>  (1) 
0.22521151081801519

>  <r_epik_Ionization_Penalty>  (1) 
0.079461215956128484

>  <r_epik_Ionization_Penalty_Charging>  (1) 
0.079461215147622277

>  <r_epik_Ionization_Penalty_Neutral>  (1) 
8.0850620194651714e-10

>  <r_epik_State_Penalty>  (1) 
0.14575029567039291

>  <r_glide_ring_energy>  (1) 
0

>  <r_i_docking_score>  (1) 
-4.1187986981231752

>  <r_i_glide_ecoul>  (1) 
0.7347308759280311

>  <r_i_glide_eff_state_penalty>  (1) 
0.14575029567039291

>  <r_i_glide_einternal>  (1) 
6.6280302799714406

>  <r_i_glide_emodel>  (1) 
-38.774812856614091

>  <r_i_glide_emodel_strain>  (1) 
1.0847959947569237

>  <r_i_glide_energy>  (1) 
-32.10980341942313

>  <r_i_glide_erotb>  (1) 
0.71514179105455389

>  <r_i_glide_esite>  (1) 
-0.12676286294189637

>  <r_i_glide_evdw>  (1) 
-32.84453429535116

>  <r_i_glide_gscore>  (1) 
-4.2645489937935679

>  <r_i_glide_gscore_strain>  (1) 
0

>  <r_i_glide_hbond>  (1) 
0

>  <r_i_glide_ligand_efficiency>  (1) 
-0.14709995350439911

>  <r_i_glide_ligand_efficiency_ln>  (1) 
-0.95073967271148097

>  <r_i_glide_ligand_efficiency_sa>  (1) 
-0.44668209657488112

>  <r_i_glide_lipo>  (1) 
-1.823474599906165

>  <r_i_glide_metal>  (1) 
-0

>  <r_i_glide_rewards>  (1) 
-1.4974362386217077

>  <r_lp_Energy>  (1) 
5.9120159999999995

>  <s_epik_cmdline>  (1) 
J2VwaWtfcHl0aG9uJywgJy1waHQnLCAnMS4wJywgJy1waCcsICc3LjQnLCAnLXRuJywgJzgnLCAnLW1hJywgJzUwMCcsICctaW1hZScsICc8aW5maWxlLm1hZT4nLCAnLW9tYWUnLCAnPG91dGZpbGUubWFlPic=

>  <s_epik_input>  (1) 
W0NIMl0xW0NIMl1bQ0BASF0oRilbQ0gyXU4xW0NAQEhdKFtDSDNdKVtQQF0oPU8pKFtPSF0pT1tQQEBdKD1PKShbT0hdKU9bQ0gyXWMoYzJGKVtjSF1bY0hdW2NIXWMyW05IXUMoPU8pW09IXQ==

>  <s_glide_docking_method>  (1) 
confgen

>  <s_i_glide_gridfile>  (1) 
gpcr_drd2_6luq_protein_autoprepared_prepared

>  <s_lp_Force_Field>  (1) 
S-OPLS

>  <s_lp_Variant>  (1) 
DiffSBDD_61-2

>  <s_m_source_file>  (1) 
generated_generic_title2_ligand_DiffSBDD_2026-06-23_prepared.sdf

>  <GenAI_Model>  (1) 
DiffSBDD

>  <Protein>  (1) 
generic_title2

$$$$
DiffSBDD_90
     RDKit          3D

  0  0  0  0  0  0  0  0  0  0999 V3000
M  V30 BEGIN CTAB
M  V30 COUNTS 80 84 0 0 1
M  V30 BEGIN ATOM
M  V30 1 C 8.380059 5.109568 -17.095335 0
M  V30 2 C 8.943784 4.350513 -15.888589 0 CFG=1
M  V30 3 C 9.389891 5.990159 -12.663922 0
M  V30 4 C 12.416844 2.231928 -18.507946 0 CFG=2
M  V30 5 C 7.772654 5.936361 -14.130966 0
M  V30 6 C 10.066514 6.392934 -11.444752 0 CFG=2
M  V30 7 C 8.637875 1.438336 -17.995522 0 CFG=2
M  V30 8 O 9.351442 4.045959 -18.851038 0 CHG=-1
M  V30 9 C 8.228163 4.045815 -18.195427 0 CFG=1
M  V30 10 C 13.138027 4.059731 -20.253936 0
M  V30 11 O 16.045136 4.006745 -16.800107 0
M  V30 12 C 8.793180 5.134449 -14.618121 0
M  V30 13 C 6.975474 2.650406 -15.304476 0 CFG=2
M  V30 14 O 15.300976 2.459009 -18.239947 0 CHG=-1
M  V30 15 O 12.866487 1.428297 -19.439192 0 CHG=-1
M  V30 16 C 10.193900 1.172685 -17.860438 0 CFG=2
M  V30 17 N 10.976060 2.052780 -18.764670 0 CHG=1
M  V30 18 N 8.113310 2.747116 -17.466920 0 CFG=2 CHG=1
M  V30 19 C 12.846897 6.473142 -17.506883 0
M  V30 20 C 10.606993 -0.292388 -18.181536 0
M  V30 21 O 6.646758 3.172562 -14.031718 0
M  V30 22 O 10.230330 -1.209783 -17.185059 0
M  V30 23 O 6.982325 -0.371268 -15.106985 0
M  V30 24 C 8.146475 1.740824 -15.131498 0 CFG=1
M  V30 25 C 15.208205 3.524352 -17.600656 0
M  V30 26 C 7.765685 0.376294 -17.275223 0
M  V30 27 N 8.217451 6.415698 -12.932807 0
M  V30 28 O 12.083440 6.523690 -18.470855 0
M  V30 29 C 8.844608 7.265068 -10.945311 0
M  V30 30 N 9.775417 5.190216 -13.653436 0 CHG=1
M  V30 31 C 12.849253 3.725906 -18.769747 0 CFG=2
M  V30 32 O 12.971900 8.390216 -10.630085 0
M  V30 33 O 11.244386 7.190224 -11.611451 0
M  V30 34 C 11.780326 7.693922 -10.413102 0
M  V30 35 C 12.830832 7.582207 -16.465027 0
M  V30 36 C 13.941076 4.346124 -17.815961 0
M  V30 37 C 8.012756 0.348340 -15.742290 0 CFG=2
M  V30 38 C 13.861078 8.340490 -9.523291 0
M  V30 39 N 13.789682 5.491530 -17.235794 0
M  V30 40 C 7.617717 7.280262 -11.985100 0
M  V30 41 C 8.265902 2.992370 -16.015027 0 CFG=1
M  V30 42 H 7.387936 5.495889 -16.857067 0
M  V30 43 H 8.994109 5.966093 -17.386447 0
M  V30 44 H 10.010075 4.193714 -16.062717 0
M  V30 45 H 12.576397 2.050692 -17.443450 0
M  V30 46 H 6.805470 6.191690 -14.539838 0
M  V30 47 H 10.175399 5.499418 -10.835123 0
M  V30 48 H 8.382392 1.397159 -19.054796 0
M  V30 49 H 7.274147 4.206126 -18.697968 0
M  V30 50 H 13.285733 5.127204 -20.410460 0
M  V30 51 H 14.037572 3.550950 -20.602677 0
M  V30 52 H 12.308843 3.746305 -20.888824 0
M  V30 53 H 6.175415 2.207673 -15.860926 0
M  V30 54 H 10.489932 1.412608 -16.841647 0
M  V30 55 H 10.965490 1.685251 -19.701781 0
M  V30 56 H 11.688849 -0.398623 -18.239027 0
M  V30 57 H 10.205466 -0.607989 -19.145251 0
M  V30 58 H 6.406343 2.450232 -13.466801 0
M  V30 59 H 10.575605 -2.067297 -17.389958 0
M  V30 60 H 7.190042 -1.300082 -15.176339 0
M  V30 61 H 8.575393 1.747320 -14.131915 0
M  V30 62 H 6.715855 0.600727 -17.469652 0
M  V30 63 H 7.891152 -0.615605 -17.708102 0
M  V30 64 H 8.575407 6.790213 -10.002794 0
M  V30 65 H 9.113343 8.295278 -10.717411 0
M  V30 66 H 11.923393 4.229101 -18.524064 0
M  V30 67 H 11.099671 8.391410 -9.927450 0
M  V30 68 H 11.936270 6.862125 -9.725634 0
M  V30 69 H 13.831541 7.996248 -16.341834 0
M  V30 70 H 12.175451 8.390319 -16.784963 0
M  V30 71 H 12.490289 7.199285 -15.503330 0
M  V30 72 H 8.905317 -0.209013 -15.496025 0
M  V30 73 H 14.815398 8.790218 -9.789192 0
M  V30 74 H 13.445222 8.857853 -8.659124 0
M  V30 75 H 14.099798 7.321462 -9.226578 0
M  V30 76 H 7.439258 8.257842 -12.435058 0
M  V30 77 H 6.700201 6.834444 -11.596696 0
M  V30 78 H 10.681820 4.713986 -13.698017 0
M  V30 79 H 10.480425 2.967643 -18.791694 0
M  V30 80 H 7.120023 2.591616 -17.551942 0
M  V30 END ATOM
M  V30 BEGIN BOND
M  V30 1 1 2 1
M  V30 2 1 6 3
M  V30 3 1 9 1
M  V30 4 1 9 8
M  V30 5 1 12 2
M  V30 6 2 12 5
M  V30 7 1 15 4
M  V30 8 1 16 7
M  V30 9 1 17 4
M  V30 10 1 17 16
M  V30 11 1 18 7
M  V30 12 1 18 9
M  V30 13 1 20 16
M  V30 14 1 21 13
M  V30 15 1 22 20
M  V30 16 1 24 13
M  V30 17 2 25 11
M  V30 18 1 25 14
M  V30 19 1 26 7
M  V30 20 1 27 3
M  V30 21 1 27 5
M  V30 22 2 28 19
M  V30 23 1 29 6
M  V30 24 2 30 3
M  V30 25 1 30 12
M  V30 26 1 31 4
M  V30 27 1 31 10
M  V30 28 1 33 6
M  V30 29 1 34 32
M  V30 30 1 34 33
M  V30 31 1 35 19
M  V30 32 1 36 25
M  V30 33 1 36 31
M  V30 34 1 37 23
M  V30 35 1 37 24
M  V30 36 1 37 26
M  V30 37 1 38 32
M  V30 38 1 39 19
M  V30 39 2 39 36
M  V30 40 1 40 27
M  V30 41 1 40 29
M  V30 42 1 41 2 CFG=3
M  V30 43 1 41 13
M  V30 44 1 41 18
M  V30 45 1 41 24
M  V30 46 1 42 1
M  V30 47 1 43 1
M  V30 48 1 2 44 CFG=3
M  V30 49 1 4 45 CFG=1
M  V30 50 1 46 5
M  V30 51 1 6 47 CFG=1
M  V30 52 1 7 48 CFG=3
M  V30 53 1 9 49 CFG=3
M  V30 54 1 50 10
M  V30 55 1 51 10
M  V30 56 1 52 10
M  V30 57 1 13 53 CFG=3
M  V30 58 1 16 54 CFG=1
M  V30 59 1 55 17
M  V30 60 1 56 20
M  V30 61 1 57 20
M  V30 62 1 58 21
M  V30 63 1 59 22
M  V30 64 1 60 23
M  V30 65 1 24 61 CFG=1
M  V30 66 1 62 26
M  V30 67 1 63 26
M  V30 68 1 64 29
M  V30 69 1 65 29
M  V30 70 1 31 66 CFG=1
M  V30 71 1 67 34
M  V30 72 1 68 34
M  V30 73 1 69 35
M  V30 74 1 70 35
M  V30 75 1 71 35
M  V30 76 1 37 72 CFG=3
M  V30 77 1 73 38
M  V30 78 1 74 38
M  V30 79 1 75 38
M  V30 80 1 76 40
M  V30 81 1 77 40
M  V30 82 1 78 30
M  V30 83 1 79 17
M  V30 84 1 18 80 CFG=1
M  V30 END BOND
M  V30 END CTAB
M  END
>  <i_epik_Tot_Q>  (1) 
0

>  <i_epik_Tot_abs_Q>  (1) 
6

>  <i_i_glide_confnum>  (1) 
694

>  <i_i_glide_lignum>  (1) 
167

>  <i_i_glide_posenum>  (1) 
312

>  <i_i_glide_rotatable_bonds>  (1) 
15

>  <i_lp_mmshare_version>  (1) 
72125

>  <i_m_source_file_index>  (1) 
91

>  <i_f3d_flags>  (1) 
0

>  <num_sample>  (1) 
100

>  <b_lp_Chiralities_Consistent>  (1) 
1

>  <r_epik_Charging_Adjusted_Penalty>  (1) 
0.35079833336250127

>  <r_epik_Ionization_Penalty>  (1) 
1.4702178244609605

>  <r_epik_Ionization_Penalty_Charging>  (1) 
0.099885809697688246

>  <r_epik_Ionization_Penalty_Neutral>  (1) 
1.3703320147632723

>  <r_epik_State_Penalty>  (1) 
0.25091252366481304

>  <r_glide_ring_energy>  (1) 
0

>  <r_i_docking_score>  (1) 
-4.1159951437049669

>  <r_i_glide_ecoul>  (1) 
-13.808531022504219

>  <r_i_glide_eff_state_penalty>  (1) 
0.25091252366481304

>  <r_i_glide_einternal>  (1) 
11.005446362553091

>  <r_i_glide_emodel>  (1) 
-37.273489188127421

>  <r_i_glide_emodel_strain>  (1) 
6.1075903565978535

>  <r_i_glide_energy>  (1) 
-36.791936131210434

>  <r_i_glide_erotb>  (1) 
0.57888693115673628

>  <r_i_glide_esite>  (1) 
-0.043769510776577647

>  <r_i_glide_evdw>  (1) 
-22.983405108706215

>  <r_i_glide_gscore>  (1) 
-4.3669076673697802

>  <r_i_glide_gscore_strain>  (1) 
0.52689758914946339

>  <r_i_glide_hbond>  (1) 
-0.53866529865364732

>  <r_i_glide_ligand_efficiency>  (1) 
-0.1003901254562187

>  <r_i_glide_ligand_efficiency_ln>  (1) 
-0.87322206714086326

>  <r_i_glide_ligand_efficiency_sa>  (1) 
-0.34616696136231861

>  <r_i_glide_lipo>  (1) 
-1.0413575956354588

>  <r_i_glide_metal>  (1) 
-0

>  <r_i_glide_rewards>  (1) 
-0.62844987379935313

>  <r_lp_Energy>  (1) 
74.620350999999999

>  <r_lp_tautomer_probability>  (1) 
1

>  <s_epik_Chemistry_Notes>  (1) 
This compound has an imine and may undergo hydrolysis. This compound contains an acetal/aminal-like group ( X-CH(R)-Y where X, Y are N, S, or O) that may be acid/base labile, releasing an aldehyde.

>  <s_epik_cmdline>  (1) 
J2VwaWtfcHl0aG9uJywgJy1waHQnLCAnMS4wJywgJy1waCcsICc3LjQnLCAnLXRuJywgJzgnLCAnLW1hJywgJzUwMCcsICctaW1hZScsICc8aW5maWxlLm1hZT4nLCAnLW9tYWUnLCAnPG91dGZpbGUubWFlPic=

>  <s_epik_input>  (1) 
W0NIM11PW0NIMl1PW0NASF0xW0NIMl1bQ0gyXW4oYzEyKVtjSF1jKG4yKVtDQEBIXTNbQ0gyXVtDQEBIXShbT0hdKU4oW0NAQF0zNDUpW0NASF0oW0NIMl1bQ0BIXShbT0hdKVtDQEBIXTVbQ0BIXTRbT0hdKVtDQEBIXShbQ0gyXVtPSF0pW05IXVtDQEBIXShbT0hdKVtDQEhdKFtDSDNdKUMoXEMoPU8pW09IXSk9Ti9DKD1PKVtDSDNd

>  <s_glide_docking_method>  (1) 
confgen

>  <s_i_glide_gridfile>  (1) 
gpcr_drd2_6luq_protein_autoprepared_prepared

>  <s_lp_Force_Field>  (1) 
S-OPLS

>  <s_lp_Variant>  (1) 
DiffSBDD_90-2

>  <s_m_source_file>  (1) 
generated_generic_title2_ligand_DiffSBDD_2026-06-23_prepared.sdf

>  <GenAI_Model>  (1) 
DiffSBDD

>  <Protein>  (1) 
generic_title2

$$$$
DiffSBDD_17
     RDKit          3D

  0  0  0  0  0  0  0  0  0  0999 V3000
M  V30 BEGIN CTAB
M  V30 COUNTS 42 43 0 0 1
M  V30 BEGIN ATOM
M  V30 1 Cl 6.988593 6.115380 -14.049240 0
M  V30 2 C 8.566551 6.324264 -11.890139 0
M  V30 3 C 7.801531 5.264775 -12.701181 0 CFG=2
M  V30 4 C 12.658375 9.393086 -4.004918 0
M  V30 5 C 6.496861 3.215263 -12.710458 0
M  V30 6 O 9.175605 5.746676 -10.738078 0
M  V30 7 C 10.799133 8.722922 -9.228935 0
M  V30 8 Cl 10.864672 6.390226 -5.947280 0
M  V30 9 C 7.611694 2.478253 -14.877777 0
M  V30 10 O 10.881942 9.280481 -5.710721 0
M  V30 11 O 12.305398 8.014657 -2.233448 0
M  V30 12 C 9.775404 6.582957 -9.818477 0
M  V30 13 O 7.686600 1.259118 -15.142012 0
M  V30 14 C 11.654643 9.174967 -6.895820 0
M  V30 15 C 9.985909 6.125855 -8.502525 0
M  V30 16 C 10.599161 6.963510 -7.551979 0
M  V30 17 C 7.832445 2.887061 -13.410709 0 CFG=1
M  V30 18 C 10.187269 7.889021 -10.180194 0
M  V30 19 C 8.706655 4.155656 -13.265388 0
M  V30 20 O 7.375436 3.391413 -15.698835 0 CHG=-1
M  V30 21 C 11.471025 10.083950 -4.708857 0
M  V30 22 C 6.738990 4.498198 -11.906892 0
M  V30 23 C 11.001169 8.267082 -7.914580 0
M  V30 24 N 12.175409 8.081495 -3.437784 0
M  V30 25 H 7.882756 7.118524 -11.585005 0
M  V30 26 H 9.324987 6.762621 -12.539507 0
M  V30 27 H 13.487493 9.190241 -4.679943 0
M  V30 28 H 13.044665 9.990230 -3.185042 0
M  V30 29 H 6.175355 2.396584 -12.067756 0
M  V30 30 H 5.700129 3.388493 -13.436302 0
M  V30 31 H 11.113021 9.716356 -9.509663 0
M  V30 32 H 12.651818 8.790225 -6.701089 0
M  V30 33 H 11.775407 10.169365 -7.317716 0
M  V30 34 H 9.677611 5.129455 -8.223405 0
M  V30 35 H 8.324015 2.061001 -12.893322 0
M  V30 36 H 10.036357 8.252186 -11.183537 0
M  V30 37 H 9.198892 4.465599 -14.188761 0
M  V30 38 H 9.508301 3.933609 -12.559798 0
M  V30 39 H 11.775388 11.023927 -5.172569 0
M  V30 40 H 10.703278 10.330089 -3.974358 0
M  V30 41 H 7.128133 4.229752 -10.924187 0
M  V30 42 H 5.828816 5.076856 -11.745097 0
M  V30 END ATOM
M  V30 BEGIN BOND
M  V30 1 1 3 1 CFG=3
M  V30 2 1 3 2
M  V30 3 1 6 2
M  V30 4 1 12 6
M  V30 5 2 13 9
M  V30 6 1 14 10
M  V30 7 2 15 12
M  V30 8 1 16 8
M  V30 9 1 16 15
M  V30 10 1 17 5
M  V30 11 1 17 9
M  V30 12 2 18 7
M  V30 13 1 18 12
M  V30 14 1 19 3
M  V30 15 1 19 17
M  V30 16 1 20 9
M  V30 17 1 21 4
M  V30 18 1 21 10
M  V30 19 1 22 3
M  V30 20 1 22 5
M  V30 21 1 23 7
M  V30 22 1 23 14
M  V30 23 2 23 16
M  V30 24 1 24 4
M  V30 25 2 24 11
M  V30 26 1 25 2
M  V30 27 1 26 2
M  V30 28 1 27 4
M  V30 29 1 28 4
M  V30 30 1 29 5
M  V30 31 1 30 5
M  V30 32 1 31 7
M  V30 33 1 32 14
M  V30 34 1 33 14
M  V30 35 1 34 15
M  V30 36 1 17 35 CFG=1
M  V30 37 1 36 18
M  V30 38 1 37 19
M  V30 39 1 38 19
M  V30 40 1 39 21
M  V30 41 1 40 21
M  V30 42 1 41 22
M  V30 43 1 42 22
M  V30 END BOND
M  V30 END CTAB
M  END
>  <i_epik_Tot_Q>  (1) 
-1

>  <i_epik_Tot_abs_Q>  (1) 
1

>  <i_i_glide_confnum>  (1) 
171

>  <i_i_glide_lignum>  (1) 
33

>  <i_i_glide_posenum>  (1) 
396

>  <i_i_glide_rotatable_bonds>  (1) 
9

>  <i_lp_mmshare_version>  (1) 
72125

>  <i_m_source_file_index>  (1) 
18

>  <i_f3d_flags>  (1) 
0

>  <num_sample>  (1) 
100

>  <b_lp_Chiralities_Consistent>  (1) 
1

>  <r_epik_Charging_Adjusted_Penalty>  (1) 
0.00012381605781317179

>  <r_epik_Ionization_Penalty>  (1) 
0.00012381605830283167

>  <r_epik_Ionization_Penalty_Charging>  (1) 
0.00012381605781317179

>  <r_epik_Ionization_Penalty_Neutral>  (1) 
4.8965987375008979e-13

>  <r_epik_State_Penalty>  (1) 
-0

>  <r_glide_ring_energy>  (1) 
0

>  <r_i_docking_score>  (1) 
-4.1159277510412355

>  <r_i_glide_ecoul>  (1) 
1.6379522788675904

>  <r_i_glide_eff_state_penalty>  (1) 
-0

>  <r_i_glide_einternal>  (1) 
4.9948248352948266

>  <r_i_glide_emodel>  (1) 
-40.151240247810236

>  <r_i_glide_emodel_strain>  (1) 
0.054894789090198515

>  <r_i_glide_energy>  (1) 
-35.115730081602173

>  <r_i_glide_erotb>  (1) 
0.96174401237487195

>  <r_i_glide_esite>  (1) 
0

>  <r_i_glide_evdw>  (1) 
-36.75368236046976

>  <r_i_glide_gscore>  (1) 
-4.1159277510412355

>  <r_i_glide_gscore_strain>  (1) 
0

>  <r_i_glide_hbond>  (1) 
0

>  <r_i_glide_ligand_efficiency>  (1) 
-0.17149698962671814

>  <r_i_glide_ligand_efficiency_ln>  (1) 
-0.98513037844188422

>  <r_i_glide_ligand_efficiency_sa>  (1) 
-0.49468291919629664

>  <r_i_glide_lipo>  (1) 
-2.1024397551439882

>  <r_i_glide_metal>  (1) 
-0

>  <r_i_glide_rewards>  (1) 
-1.3832407320787694

>  <r_lp_Energy>  (1) 
30.153981999999999

>  <r_lp_tautomer_probability>  (1) 
1

>  <s_epik_cmdline>  (1) 
J2VwaWtfcHl0aG9uJywgJy1waHQnLCAnMS4wJywgJy1waCcsICc3LjQnLCAnLXRuJywgJzgnLCAnLW1hJywgJzUwMCcsICctaW1hZScsICc8aW5maWxlLm1hZT4nLCAnLW9tYWUnLCAnPG91dGZpbGUubWFlPic=

>  <s_epik_input>  (1) 
Tz1DKFtPSF0pW0NAQEhdKFtDSDJdW0NIMl0xKVtDSDJdW0NAXTEoQ2wpW0NIMl1PYzJbY0hdYyhDbCljKFtjSF1bY0hdMilbQ0gyXU9bQ0gyXVtDSDJdTj1P

>  <s_glide_docking_method>  (1) 
confgen

>  <s_i_glide_gridfile>  (1) 
gpcr_drd2_6luq_protein_autoprepared_prepared

>  <s_lp_Force_Field>  (1) 
S-OPLS

>  <s_lp_Variant>  (1) 
DiffSBDD_17-2

>  <s_m_source_file>  (1) 
generated_generic_title2_ligand_DiffSBDD_2026-06-23_prepared.sdf

>  <GenAI_Model>  (1) 
DiffSBDD

>  <Protein>  (1) 
generic_title2

$$$$
DiffSBDD_94
     RDKit          3D

  0  0  0  0  0  0  0  0  0  0999 V3000
M  V30 BEGIN CTAB
M  V30 COUNTS 65 69 0 0 1
M  V30 BEGIN ATOM
M  V30 1 C 10.321623 8.390227 -10.285421 0
M  V30 2 C 7.198321 5.408355 -12.613118 0
M  V30 3 O 8.974854 -0.902059 -16.702181 0
M  V30 4 C 10.040419 7.540432 -11.551447 0
M  V30 5 C 7.857776 -0.095336 -16.385689 0 CFG=1
M  V30 6 N 11.294472 6.425517 -3.944264 0
M  V30 7 C 11.775409 6.768387 -2.718771 0
M  V30 8 C 10.614014 7.528125 -9.077835 0 CFG=2
M  V30 9 C 12.045215 8.471136 -4.785019 0
M  V30 10 C 7.806413 1.152546 -17.240990 0 CFG=1
M  V30 11 Cl 9.830021 5.590239 -7.582418 0
M  V30 12 C 6.901802 -0.024458 -17.549112 0
M  V30 13 C 12.279742 9.328472 -6.033905 0 CFG=2
M  V30 14 C 8.951590 4.227844 -12.812476 0
M  V30 15 C 8.705261 5.729051 -12.599824 0
M  V30 16 C 9.415899 6.634151 -8.890756 0 CFG=2
M  V30 17 C 7.517042 2.537631 -15.145681 0 CFG=1
M  V30 18 C 11.458660 10.597122 -5.991626 0
M  V30 19 C 12.412258 7.991172 -2.468685 0
M  V30 20 O 8.308483 4.790243 -9.933350 0
M  V30 21 N 11.375424 7.301778 -4.966562 0
M  V30 22 N 7.522308 4.074809 -13.129908 0
M  V30 23 C 7.244377 2.430373 -16.659171 0
M  V30 24 N 9.217277 6.331335 -11.336223 0
M  V30 25 F 8.890662 1.354917 -18.077804 0
M  V30 26 C 7.179395 3.933066 -14.549699 0
M  V30 27 C 12.564479 8.867571 -3.541312 0
M  V30 28 C 7.446364 -0.068518 -14.910962 0
M  V30 29 O 6.086967 1.395292 -13.558205 0
M  V30 30 C 8.941649 5.827793 -10.104257 0
M  V30 31 C 12.175798 8.601263 -7.418556 0
M  V30 32 C 6.931182 1.298307 -14.445754 0
M  V30 33 N 10.785332 8.315665 -7.827671 0 CHG=1
M  V30 34 H 9.442949 9.003514 -10.067102 0
M  V30 35 H 11.172480 9.056104 -10.420777 0
M  V30 36 H 6.603462 5.985752 -13.321314 0
M  V30 37 H 6.705697 5.312193 -11.646618 0
M  V30 38 H 9.306358 -0.619913 -17.542273 0
M  V30 39 H 10.987815 7.203922 -11.976005 0
M  V30 40 H 9.566615 8.172761 -12.303724 0
M  V30 41 H 11.643871 6.044782 -1.928626 0
M  V30 42 H 11.496270 6.913867 -9.262369 0
M  V30 43 H 7.123402 -0.611232 -18.439556 0
M  V30 44 H 5.844074 0.063717 -17.309214 0
M  V30 45 H 13.322586 9.639276 -5.952700 0
M  V30 46 H 9.202197 3.648883 -11.923659 0
M  V30 47 H 9.584793 3.990385 -13.663713 0
M  V30 48 H 8.975335 6.286972 -13.496901 0
M  V30 49 H 8.575464 7.190419 -8.496650 0
M  V30 50 H 8.575488 2.410947 -15.023881 0
M  V30 51 H 11.522601 11.112654 -5.038374 0
M  V30 52 H 11.775419 11.282814 -6.777428 0
M  V30 53 H 10.430752 10.321280 -6.139445 0
M  V30 54 H 12.789822 8.237206 -1.486503 0
M  V30 55 H 6.175410 2.390255 -16.852300 0
M  V30 56 H 7.648197 3.291970 -17.194083 0
M  V30 57 H 7.691153 4.706012 -15.125582 0
M  V30 58 H 6.111406 4.121035 -14.666647 0
M  V30 59 H 13.083774 9.806321 -3.424515 0
M  V30 60 H 6.666978 -0.809767 -14.738046 0
M  V30 61 H 8.299837 -0.342924 -14.291224 0
M  V30 62 H 12.722848 7.661694 -7.412543 0
M  V30 63 H 12.630652 9.190226 -8.210608 0
M  V30 64 H 10.243964 9.165884 -7.887432 0
M  V30 65 H 10.392310 7.747149 -7.085383 0
M  V30 END ATOM
M  V30 BEGIN BOND
M  V30 1 1 4 1
M  V30 2 1 5 3 CFG=3
M  V30 3 1 7 6
M  V30 4 1 8 1
M  V30 5 1 10 5
M  V30 6 1 12 5
M  V30 7 1 12 10
M  V30 8 1 13 9
M  V30 9 1 15 2
M  V30 10 1 15 14
M  V30 11 1 16 8
M  V30 12 1 16 11
M  V30 13 1 18 13
M  V30 14 2 19 7
M  V30 15 2 21 6
M  V30 16 1 21 9
M  V30 17 1 22 2
M  V30 18 1 22 14
M  V30 19 1 23 10
M  V30 20 1 23 17
M  V30 21 1 24 4
M  V30 22 1 24 15
M  V30 23 1 10 25 CFG=3
M  V30 24 1 26 17
M  V30 25 1 26 22
M  V30 26 2 27 9
M  V30 27 1 27 19
M  V30 28 1 28 5
M  V30 29 1 30 16
M  V30 30 2 30 20
M  V30 31 1 30 24
M  V30 32 1 31 13
M  V30 33 1 32 17
M  V30 34 1 32 28
M  V30 35 2 32 29
M  V30 36 1 33 8
M  V30 37 1 33 31
M  V30 38 1 34 1
M  V30 39 1 35 1
M  V30 40 1 36 2
M  V30 41 1 37 2
M  V30 42 1 38 3
M  V30 43 1 39 4
M  V30 44 1 40 4
M  V30 45 1 41 7
M  V30 46 1 8 42 CFG=3
M  V30 47 1 43 12
M  V30 48 1 44 12
M  V30 49 1 13 45 CFG=1
M  V30 50 1 46 14
M  V30 51 1 47 14
M  V30 52 1 48 15
M  V30 53 1 16 49 CFG=1
M  V30 54 1 17 50 CFG=3
M  V30 55 1 51 18
M  V30 56 1 52 18
M  V30 57 1 53 18
M  V30 58 1 54 19
M  V30 59 1 55 23
M  V30 60 1 56 23
M  V30 61 1 57 26
M  V30 62 1 58 26
M  V30 63 1 59 27
M  V30 64 1 60 28
M  V30 65 1 61 28
M  V30 66 1 62 31
M  V30 67 1 63 31
M  V30 68 1 64 33
M  V30 69 1 65 33
M  V30 END BOND
M  V30 END CTAB
M  END
>  <i_epik_Tot_Q>  (1) 
1

>  <i_epik_Tot_abs_Q>  (1) 
1

>  <i_i_glide_confnum>  (1) 
583

>  <i_i_glide_lignum>  (1) 
180

>  <i_i_glide_posenum>  (1) 
53

>  <i_i_glide_rotatable_bonds>  (1) 
8

>  <i_lp_mmshare_version>  (1) 
72125

>  <i_m_source_file_index>  (1) 
95

>  <i_f3d_flags>  (1) 
0

>  <num_sample>  (1) 
100

>  <b_lp_Chiralities_Consistent>  (1) 
1

>  <r_epik_Charging_Adjusted_Penalty>  (1) 
0.72185146143454548

>  <r_epik_Ionization_Penalty>  (1) 
0.57657023161056387

>  <r_epik_Ionization_Penalty_Charging>  (1) 
0.10328520629071786

>  <r_epik_Ionization_Penalty_Neutral>  (1) 
0.47328502531984601

>  <r_epik_State_Penalty>  (1) 
0.61856625514382757

>  <r_glide_ring_energy>  (1) 
0.91589954985557798

>  <r_i_docking_score>  (1) 
-4.1102304096080751

>  <r_i_glide_ecoul>  (1) 
1.0211998942233675

>  <r_i_glide_eff_state_penalty>  (1) 
0.61856625514382757

>  <r_i_glide_einternal>  (1) 
5.9343796926258072

>  <r_i_glide_emodel>  (1) 
-36.16963454239373

>  <r_i_glide_emodel_strain>  (1) 
3.8380901676418944

>  <r_i_glide_energy>  (1) 
-30.145156103990864

>  <r_i_glide_erotb>  (1) 
0.52602338862990483

>  <r_i_glide_esite>  (1) 
-0.11406489223755699

>  <r_i_glide_evdw>  (1) 
-31.166355998214232

>  <r_i_glide_gscore>  (1) 
-4.7287966647519024

>  <r_i_glide_gscore_strain>  (1) 
0

>  <r_i_glide_hbond>  (1) 
0

>  <r_i_glide_ligand_efficiency>  (1) 
-0.12455243665479016

>  <r_i_glide_ligand_efficiency_ln>  (1) 
-0.91409396146274347

>  <r_i_glide_ligand_efficiency_sa>  (1) 
-0.39950621645487

>  <r_i_glide_lipo>  (1) 
-2.6431402277302545

>  <r_i_glide_metal>  (1) 
-0

>  <r_i_glide_rewards>  (1) 
-1.0924771176367893

>  <r_lp_Energy>  (1) 
45.717675

>  <r_lp_tautomer_probability>  (1) 
0.99999998000000001

>  <s_epik_cmdline>  (1) 
J2VwaWtfcHl0aG9uJywgJy1waHQnLCAnMS4wJywgJy1waCcsICc3LjQnLCAnLXRuJywgJzgnLCAnLW1hJywgJzUwMCcsICctaW1hZScsICc8aW5maWxlLm1hZT4nLCAnLW9tYWUnLCAnPG91dGZpbGUubWFlPic=

>  <s_epik_input>  (1) 
W2NIXTFbY0hdW2NIXW5uYzFbQ0BIXShbQ0gzXSlbQ0gyXVtOSF1bQ0BASF0yW0NIMl1bQ0gyXU4oQyg9TylbQ0BIXTJDbClbQ0hdM1tDSDJdTihbQ0gyXTMpW0NIMl1bQ0BASF0oQyg9TylbQ0gyXTQpW0NIMl1bQ0BdKEYpKFtDSDJdNSlbQ0BAXTQ1W09IXQ==

>  <s_glide_docking_method>  (1) 
confgen

>  <s_i_glide_gridfile>  (1) 
gpcr_drd2_6luq_protein_autoprepared_prepared

>  <s_lp_Force_Field>  (1) 
S-OPLS

>  <s_lp_Variant>  (1) 
DiffSBDD_94-3

>  <s_m_source_file>  (1) 
generated_generic_title2_ligand_DiffSBDD_2026-06-23_prepared.sdf

>  <GenAI_Model>  (1) 
DiffSBDD

>  <Protein>  (1) 
generic_title2

$$$$
DiffSBDD_90
     RDKit          3D

  0  0  0  0  0  0  0  0  0  0999 V3000
M  V30 BEGIN CTAB
M  V30 COUNTS 80 84 0 0 1
M  V30 BEGIN ATOM
M  V30 1 C 7.406304 7.617263 -13.033013 0
M  V30 2 C 8.488015 6.547101 -12.760804 0 CFG=1
M  V30 3 C 10.085920 7.622623 -9.659591 0
M  V30 4 C 9.970456 4.727448 -17.054514 0 CFG=2
M  V30 5 C 10.803020 7.190309 -11.670947 0
M  V30 6 C 10.180503 8.034307 -8.276368 0 CFG=2
M  V30 7 C 6.606363 4.587043 -15.038320 0 CFG=2
M  V30 8 O 6.528784 7.384132 -15.284308 0
M  V30 9 C 6.401045 6.931076 -13.959856 0 CFG=1
M  V30 10 C 11.875350 5.981936 -15.679901 0
M  V30 11 O 13.020414 6.173695 -18.235959 0
M  V30 12 C 9.439129 6.955076 -11.668910 0
M  V30 13 C 7.115711 4.465286 -11.669545 0 CFG=2
M  V30 14 O 14.034283 4.385062 -19.122042 0 CHG=-1
M  V30 15 O 9.876194 5.718148 -17.897794 0 CHG=-1
M  V30 16 C 7.528567 4.706532 -16.330176 0 CFG=2
M  V30 17 N 8.946289 5.054783 -16.026214 0 CHG=1
M  V30 18 N 6.755392 5.523167 -13.913942 0
M  V30 19 C 13.917845 2.113891 -17.389002 0
M  V30 20 C 6.994935 5.534435 -17.545813 0
M  V30 21 O 7.617853 4.785740 -10.388492 0
M  V30 22 O 5.593434 5.597825 -17.663065 0
M  V30 23 O 7.760421 1.489311 -13.176798 0
M  V30 24 C 8.162124 3.842603 -12.584978 0 CFG=1
M  V30 25 C 13.257646 4.950843 -18.319376 0
M  V30 26 C 6.574976 3.148017 -14.463591 0
M  V30 27 N 11.109983 7.612088 -10.405998 0
M  V30 28 O 15.038957 2.606923 -17.257079 0
M  V30 29 C 11.732779 8.424042 -8.381695 0
M  V30 30 N 9.040987 7.239129 -10.384542 0 CHG=1
M  V30 31 C 11.405667 4.709860 -16.438595 0 CFG=2
M  V30 32 O 11.004352 7.620618 -5.443893 0
M  V30 33 O 9.946823 6.950479 -7.389276 0
M  V30 34 C 9.791642 7.329261 -6.062510 0
M  V30 35 C 13.770736 0.648473 -17.794714 0
M  V30 36 C 12.494281 4.027204 -17.316289 0
M  V30 37 C 7.821045 2.809749 -13.664008 0 CFG=2
M  V30 38 C 11.553490 6.558519 -4.675066 0
M  V30 39 N 12.701527 2.755399 -17.184054 0
M  V30 40 C 12.331428 8.037087 -9.818765 0
M  V30 41 C 7.687374 5.262682 -12.827538 0 CFG=1
M  V30 42 H 6.900050 7.883155 -12.102258 0
M  V30 43 H 7.782068 8.543592 -13.454394 0
M  V30 44 H 9.138324 6.389956 -13.610562 0
M  V30 45 H 9.769213 3.696029 -17.352319 0
M  V30 46 H 11.539879 7.117275 -12.458981 0
M  V30 47 H 9.510824 8.883974 -8.140456 0
M  V30 48 H 5.601458 4.789664 -15.384902 0
M  V30 49 H 6.451406 8.325899 -15.300930 0
M  V30 50 H 5.376977 7.088773 -13.617995 0
M  V30 51 H 12.939106 5.916939 -15.441360 0
M  V30 52 H 11.728766 6.891425 -16.261328 0
M  V30 53 H 11.372168 6.100799 -14.725270 0
M  V30 54 H 6.090605 4.096004 -11.694884 0
M  V30 55 H 7.562828 3.695187 -16.735970 0
M  V30 56 H 9.003309 6.050167 -15.881297 0
M  V30 57 H 7.369399 5.090635 -18.469359 0
M  V30 58 H 7.370824 6.555395 -17.553180 0
M  V30 59 H 6.904371 4.832151 -9.768729 0
M  V30 60 H 5.286668 6.234094 -17.034522 0
M  V30 61 H 8.537248 1.313506 -12.660996 0
M  V30 62 H 9.149320 3.710485 -12.143202 0
M  V30 63 H 5.711156 3.039148 -13.806370 0
M  V30 64 H 6.457581 2.413939 -15.260738 0
M  V30 65 H 11.834402 9.501310 -8.236504 0
M  V30 66 H 12.312743 7.944779 -7.590029 0
M  V30 67 H 11.283780 4.009438 -15.621798 0
M  V30 68 H 9.133785 8.199045 -5.987663 0
M  V30 69 H 9.301928 6.496713 -5.558891 0
M  V30 70 H 12.742905 0.399750 -18.065231 0
M  V30 71 H 14.415397 0.430999 -18.648315 0
M  V30 72 H 14.072931 0.011626 -16.963318 0
M  V30 73 H 8.575152 2.820861 -14.421623 0
M  V30 74 H 12.573720 6.821903 -4.379534 0
M  V30 75 H 10.976045 6.422278 -3.763801 0
M  V30 76 H 11.585708 5.596354 -5.197774 0
M  V30 77 H 12.983111 7.187120 -9.766054 0
M  V30 78 H 12.769283 8.861392 -10.382406 0
M  V30 79 H 8.065436 7.208493 -10.031149 0
M  V30 80 H 9.206025 4.579951 -15.177180 0
M  V30 END ATOM
M  V30 BEGIN BOND
M  V30 1 1 2 1
M  V30 2 1 6 3
M  V30 3 1 9 1
M  V30 4 1 9 8
M  V30 5 1 12 2
M  V30 6 2 12 5
M  V30 7 1 15 4
M  V30 8 1 16 7
M  V30 9 1 17 4
M  V30 10 1 17 16
M  V30 11 1 18 7
M  V30 12 1 18 9
M  V30 13 1 20 16
M  V30 14 1 21 13
M  V30 15 1 22 20
M  V30 16 1 24 13
M  V30 17 2 25 11
M  V30 18 1 25 14
M  V30 19 1 26 7
M  V30 20 1 27 3
M  V30 21 1 27 5
M  V30 22 2 28 19
M  V30 23 1 29 6
M  V30 24 2 30 3
M  V30 25 1 30 12
M  V30 26 1 31 4
M  V30 27 1 31 10
M  V30 28 1 33 6
M  V30 29 1 34 32
M  V30 30 1 34 33
M  V30 31 1 35 19
M  V30 32 1 36 25
M  V30 33 1 36 31
M  V30 34 1 37 23
M  V30 35 1 37 24
M  V30 36 1 37 26
M  V30 37 1 38 32
M  V30 38 1 39 19
M  V30 39 2 39 36
M  V30 40 1 40 27
M  V30 41 1 40 29
M  V30 42 1 41 2
M  V30 43 1 41 13
M  V30 44 1 41 18 CFG=3
M  V30 45 1 41 24
M  V30 46 1 42 1
M  V30 47 1 43 1
M  V30 48 1 2 44 CFG=3
M  V30 49 1 4 45 CFG=3
M  V30 50 1 46 5
M  V30 51 1 6 47 CFG=1
M  V30 52 1 7 48 CFG=3
M  V30 53 1 49 8
M  V30 54 1 9 50 CFG=1
M  V30 55 1 51 10
M  V30 56 1 52 10
M  V30 57 1 53 10
M  V30 58 1 13 54 CFG=1
M  V30 59 1 16 55 CFG=3
M  V30 60 1 56 17
M  V30 61 1 57 20
M  V30 62 1 58 20
M  V30 63 1 59 21
M  V30 64 1 60 22
M  V30 65 1 61 23
M  V30 66 1 24 62 CFG=1
M  V30 67 1 63 26
M  V30 68 1 64 26
M  V30 69 1 65 29
M  V30 70 1 66 29
M  V30 71 1 31 67 CFG=1
M  V30 72 1 68 34
M  V30 73 1 69 34
M  V30 74 1 70 35
M  V30 75 1 71 35
M  V30 76 1 72 35
M  V30 77 1 37 73 CFG=3
M  V30 78 1 74 38
M  V30 79 1 75 38
M  V30 80 1 76 38
M  V30 81 1 77 40
M  V30 82 1 78 40
M  V30 83 1 79 30
M  V30 84 1 80 17
M  V30 END BOND
M  V30 END CTAB
M  END
>  <i_epik_Tot_Q>  (1) 
0

>  <i_epik_Tot_abs_Q>  (1) 
4

>  <i_i_glide_confnum>  (1) 
3409

>  <i_i_glide_lignum>  (1) 
171

>  <i_i_glide_posenum>  (1) 
46

>  <i_i_glide_rotatable_bonds>  (1) 
16

>  <i_lp_mmshare_version>  (1) 
72125

>  <i_m_source_file_index>  (1) 
91

>  <i_f3d_flags>  (1) 
0

>  <num_sample>  (1) 
100

>  <b_lp_Chiralities_Consistent>  (1) 
1

>  <r_epik_Charging_Adjusted_Penalty>  (1) 
1.4758035429533554

>  <r_epik_Ionization_Penalty>  (1) 
0.33648449588267881

>  <r_epik_Ionization_Penalty_Charging>  (1) 
0.24231300703988756

>  <r_epik_Ionization_Penalty_Neutral>  (1) 
0.094171488842791265

>  <r_epik_State_Penalty>  (1) 
1.2334905359134678

>  <r_glide_ring_energy>  (1) 
0

>  <r_i_docking_score>  (1) 
-4.1088677242926135

>  <r_i_glide_ecoul>  (1) 
-10.768855801709751

>  <r_i_glide_eff_state_penalty>  (1) 
1.2334905359134678

>  <r_i_glide_einternal>  (1) 
8.9222695688729701

>  <r_i_glide_emodel>  (1) 
-51.648686629159258

>  <r_i_glide_emodel_strain>  (1) 
4.837442817850075

>  <r_i_glide_energy>  (1) 
-45.423566787096959

>  <r_i_glide_erotb>  (1) 
0.57888693115673628

>  <r_i_glide_esite>  (1) 
-0.18139868406817772

>  <r_i_glide_evdw>  (1) 
-34.654710985387204

>  <r_i_glide_gscore>  (1) 
-5.3423582602060815

>  <r_i_glide_gscore_strain>  (1) 
0.20936070446251875

>  <r_i_glide_hbond>  (1) 
-0.21144568074843287

>  <r_i_glide_ligand_efficiency>  (1) 
-0.10021628595835642

>  <r_i_glide_ligand_efficiency_ln>  (1) 
-0.87170996139356816

>  <r_i_glide_ligand_efficiency_sa>  (1) 
-0.34556752500873039

>  <r_i_glide_lipo>  (1) 
-1.6280673137275179

>  <r_i_glide_metal>  (1) 
-0

>  <r_i_glide_rewards>  (1) 
-0.76163029775538471

>  <r_lp_Energy>  (1) 
73.410639000000003

>  <s_epik_Chemistry_Notes>  (1) 
This compound has an imine and may undergo hydrolysis. This compound contains an acetal/aminal-like group ( X-CH(R)-Y where X, Y are N, S, or O) that may be acid/base labile, releasing an aldehyde.

>  <s_epik_cmdline>  (1) 
J2VwaWtfcHl0aG9uJywgJy1waHQnLCAnMS4wJywgJy1waCcsICc3LjQnLCAnLXRuJywgJzgnLCAnLW1hJywgJzUwMCcsICctaW1hZScsICc8aW5maWxlLm1hZT4nLCAnLW9tYWUnLCAnPG91dGZpbGUubWFlPic=

>  <s_epik_input>  (1) 
W0NIM11PW0NIMl1PW0NASF0xW0NIMl1bQ0gyXW4oYzEyKVtjSF1jKG4yKVtDQEBIXTNbQ0gyXVtDQEBIXShbT0hdKU4oW0NAQF0zNDUpW0NASF0oW0NIMl1bQ0BIXShbT0hdKVtDQEBIXTVbQ0BIXTRbT0hdKVtDQEBIXShbQ0gyXVtPSF0pW05IXVtDQEBIXShbT0hdKVtDQEhdKFtDSDNdKUMoXEMoPU8pW09IXSk9TlxDKD1PKVtDSDNd

>  <s_glide_docking_method>  (1) 
confgen

>  <s_i_glide_gridfile>  (1) 
gpcr_drd2_6luq_protein_autoprepared_prepared

>  <s_lp_Force_Field>  (1) 
S-OPLS

>  <s_lp_Variant>  (1) 
DiffSBDD_90-6

>  <s_m_source_file>  (1) 
generated_generic_title2_ligand_DiffSBDD_2026-06-23_prepared.sdf

>  <GenAI_Model>  (1) 
DiffSBDD

>  <Protein>  (1) 
generic_title2

$$$$
DiffSBDD_91
     RDKit          3D

  0  0  0  0  0  0  0  0  0  0999 V3000
M  V30 BEGIN CTAB
M  V30 COUNTS 54 54 0 0 1
M  V30 BEGIN ATOM
M  V30 1 O 11.099128 6.389922 -4.899637 0 CHG=-1
M  V30 2 C 7.205044 4.525685 -18.199218 0
M  V30 3 O 7.695670 2.397197 -15.698859 0
M  V30 4 F 6.575367 3.364608 -18.041439 0
M  V30 5 C 9.538471 3.560379 -17.836103 0
M  V30 6 C 7.775640 3.468720 -15.098124 0
M  V30 7 O 9.601392 4.315636 -11.984355 0
M  V30 8 C 11.221486 7.474271 -5.499680 0
M  V30 9 C 11.004805 7.346084 -7.010715 0 CFG=1
M  V30 10 C 9.469542 6.536802 -8.968966 0
M  V30 11 C 11.510850 8.714067 -5.182113 0
M  V30 12 C 8.309231 4.733702 -15.835788 0 CFG=2
M  V30 13 O 11.775209 10.765345 -6.271442 0
M  V30 14 N 8.039430 5.250765 -10.636389 0
M  V30 15 C 7.499215 4.863316 -13.041107 0
M  V30 16 C 11.834462 9.265029 -3.788649 0
M  V30 17 F 6.376039 5.522454 -17.891050 0
M  V30 18 C 12.272945 8.200947 -2.761641 0
M  V30 19 C 9.638911 6.759219 -7.442852 0
M  V30 20 C 8.512611 4.623143 -17.382695 0 CFG=2
M  V30 21 C 11.526144 9.562687 -6.279751 0
M  V30 22 O 11.206833 8.790163 -7.410442 0
M  V30 23 N 7.409181 3.591878 -13.789911 0
M  V30 24 C 6.885750 2.429098 -13.067999 0
M  V30 25 O 12.575390 8.790160 -1.517707 0
M  V30 26 C 8.684046 5.245958 -9.313122 0
M  V30 27 O 6.673527 5.590193 -10.577292 0
M  V30 28 O 9.556906 5.129450 -15.289277 0
M  V30 29 C 8.473728 4.776071 -11.829656 0
M  V30 30 H 7.411889 4.618341 -19.266230 0
M  V30 31 H 9.165063 2.544888 -17.711267 0
M  V30 32 H 9.781142 3.682822 -18.891844 0
M  V30 33 H 10.473000 3.637033 -17.279995 0
M  V30 34 H 11.810989 6.751749 -7.439572 0
M  V30 35 H 10.445409 6.485475 -9.451252 0
M  V30 36 H 8.977644 7.409374 -9.395201 0
M  V30 37 H 7.597581 5.545911 -15.685116 0
M  V30 38 H 6.466245 5.103068 -12.799876 0
M  V30 39 H 7.824643 5.735782 -13.597793 0
M  V30 40 H 12.644182 9.990098 -3.889645 0
M  V30 41 H 10.974277 9.817372 -3.415108 0
M  V30 42 H 11.486302 7.469202 -2.581940 0
M  V30 43 H 13.148937 7.659019 -3.118329 0
M  V30 44 H 8.825153 7.382199 -7.067983 0
M  V30 45 H 9.525417 5.798127 -6.942770 0
M  V30 46 H 8.945735 5.579003 -17.683093 0
M  V30 47 H 6.175089 1.861831 -13.672113 0
M  V30 48 H 7.699231 1.759765 -12.782463 0
M  V30 49 H 6.362698 2.734764 -12.161415 0
M  V30 50 H 13.178832 9.512282 -1.643027 0
M  V30 51 H 7.908129 5.090487 -8.560787 0
M  V30 52 H 9.354207 4.390541 -9.234357 0
M  V30 53 H 6.653784 6.302207 -9.939008 0
M  V30 54 H 9.865830 5.896747 -15.746049 0
M  V30 END ATOM
M  V30 BEGIN BOND
M  V30 1 1 4 2
M  V30 2 2 6 3
M  V30 3 1 8 1
M  V30 4 1 9 8
M  V30 5 2 11 8
M  V30 6 1 12 6
M  V30 7 1 16 11
M  V30 8 1 17 2
M  V30 9 1 18 16
M  V30 10 1 19 9
M  V30 11 1 19 10
M  V30 12 1 20 2
M  V30 13 1 20 5
M  V30 14 1 20 12
M  V30 15 1 21 11
M  V30 16 2 21 13
M  V30 17 1 22 9
M  V30 18 1 22 21
M  V30 19 1 23 6
M  V30 20 1 23 15
M  V30 21 1 24 23
M  V30 22 1 25 18
M  V30 23 1 26 10
M  V30 24 1 26 14
M  V30 25 1 27 14
M  V30 26 1 28 12
M  V30 27 2 29 7
M  V30 28 1 29 14
M  V30 29 1 29 15
M  V30 30 1 30 2
M  V30 31 1 31 5
M  V30 32 1 32 5
M  V30 33 1 33 5
M  V30 34 1 9 34 CFG=3
M  V30 35 1 35 10
M  V30 36 1 36 10
M  V30 37 1 12 37 CFG=3
M  V30 38 1 38 15
M  V30 39 1 39 15
M  V30 40 1 40 16
M  V30 41 1 41 16
M  V30 42 1 42 18
M  V30 43 1 43 18
M  V30 44 1 44 19
M  V30 45 1 45 19
M  V30 46 1 20 46 CFG=3
M  V30 47 1 47 24
M  V30 48 1 48 24
M  V30 49 1 49 24
M  V30 50 1 50 25
M  V30 51 1 51 26
M  V30 52 1 52 26
M  V30 53 1 53 27
M  V30 54 1 54 28
M  V30 END BOND
M  V30 END CTAB
M  END
>  <i_epik_Tot_Q>  (1) 
-1

>  <i_epik_Tot_abs_Q>  (1) 
1

>  <i_i_glide_confnum>  (1) 
104

>  <i_i_glide_lignum>  (1) 
174

>  <i_i_glide_posenum>  (1) 
292

>  <i_i_glide_rotatable_bonds>  (1) 
16

>  <i_lp_mmshare_version>  (1) 
72125

>  <i_m_source_file_index>  (1) 
92

>  <i_f3d_flags>  (1) 
0

>  <num_sample>  (1) 
100

>  <b_lp_Chiralities_Consistent>  (1) 
1

>  <r_epik_Charging_Adjusted_Penalty>  (1) 
7.0624640006874639e-05

>  <r_epik_Ionization_Penalty>  (1) 
0.026986969757343576

>  <r_epik_Ionization_Penalty_Charging>  (1) 
7.0624640006874639e-05

>  <r_epik_Ionization_Penalty_Neutral>  (1) 
0.026916345117336701

>  <r_epik_State_Penalty>  (1) 
-0

>  <r_glide_ring_energy>  (1) 
0

>  <r_i_docking_score>  (1) 
-4.1030256968685608

>  <r_i_glide_ecoul>  (1) 
-5.8998747130491722

>  <r_i_glide_eff_state_penalty>  (1) 
-0

>  <r_i_glide_einternal>  (1) 
15.011590302042077

>  <r_i_glide_emodel>  (1) 
-40.523745928846559

>  <r_i_glide_emodel_strain>  (1) 
3.9510086748059194

>  <r_i_glide_energy>  (1) 
-42.142306119721262

>  <r_i_glide_erotb>  (1) 
1.3267024169305881

>  <r_i_glide_esite>  (1) 
-0.068024066785145818

>  <r_i_glide_evdw>  (1) 
-36.24243140667209

>  <r_i_glide_gscore>  (1) 
-4.1030256968685608

>  <r_i_glide_gscore_strain>  (1) 
0

>  <r_i_glide_hbond>  (1) 
-0.45599999999999996

>  <r_i_glide_ligand_efficiency>  (1) 
-0.14148364471960553

>  <r_i_glide_ligand_efficiency_ln>  (1) 
-0.93948884082836859

>  <r_i_glide_ligand_efficiency_sa>  (1) 
-0.43468258223140277

>  <r_i_glide_lipo>  (1) 
-1.8847208823694128

>  <r_i_glide_metal>  (1) 
-0

>  <r_i_glide_rewards>  (1) 
-0.32388038735360891

>  <r_lp_Energy>  (1) 
6.6003359999999995

>  <r_lp_tautomer_probability>  (1) 
1

>  <s_epik_Chemistry_Notes>  (1) 
This compound has an ester and may undergo hydrolysis at high or low pH. This compound has a N-S or N-O group and may undergo hydrolysis at high or low pH.

>  <s_epik_cmdline>  (1) 
J2VwaWtfcHl0aG9uJywgJy1waHQnLCAnMS4wJywgJy1waCcsICc3LjQnLCAnLXRuJywgJzgnLCAnLW1hJywgJzUwMCcsICctaW1hZScsICc8aW5maWxlLm1hZT4nLCAnLW9tYWUnLCAnPG91dGZpbGUubWFlPic=

>  <s_epik_input>  (1) 
W09IXVtDSDJdW0NIMl1bQ0BASF0xQyg9TylPW0NAQEhdKEMxPU8pW0NIMl1bQ0gyXVtDSDJdTihbT0hdKUMoPU8pW0NIMl1OKFtDSDNdKUMoPU8pW0NAQEhdKFtPSF0pW0NASF0oW0NIXShGKUYpW0NIM10=

>  <s_glide_docking_method>  (1) 
confgen

>  <s_i_glide_gridfile>  (1) 
gpcr_drd2_6luq_protein_autoprepared_prepared

>  <s_lp_Force_Field>  (1) 
S-OPLS

>  <s_lp_Variant>  (1) 
DiffSBDD_91-1

>  <s_m_source_file>  (1) 
generated_generic_title2_ligand_DiffSBDD_2026-06-23_prepared.sdf

>  <GenAI_Model>  (1) 
DiffSBDD

>  <Protein>  (1) 
generic_title2

$$$$
DiffSBDD_60
     RDKit          3D

  0  0  0  0  0  0  0  0  0  0999 V3000
M  V30 BEGIN CTAB
M  V30 COUNTS 71 74 0 0 1
M  V30 BEGIN ATOM
M  V30 1 C 10.877733 6.372672 -12.886581 0
M  V30 2 C 10.742690 7.760843 -8.564060 0
M  V30 3 C 7.662893 0.860295 -17.699907 0 CFG=1
M  V30 4 C 8.819724 5.207913 -16.071891 0
M  V30 5 C 9.557034 7.425099 -7.866344 0
M  V30 6 O 10.413263 5.017922 -17.910752 0
M  V30 7 C 10.853492 7.476418 -9.954051 0
M  V30 8 C 9.442044 7.710069 -6.504568 0
M  V30 9 N 9.731849 6.848978 -10.578134 0
M  V30 10 C 6.442569 -0.211555 -15.608833 0
M  V30 11 C 12.896773 8.659050 -8.542016 0
M  V30 12 C 5.992919 6.786387 -15.009749 0
M  V30 13 S 8.687650 0.294221 -19.103767 0
M  V30 14 C 6.359795 1.391059 -18.331693 0
M  V30 15 C 12.017606 7.758581 -10.785026 0
M  V30 16 O 7.118645 0.398567 -14.529541 0
M  V30 17 C 11.772654 8.358520 -7.883310 0
M  V30 18 C 8.690649 3.274172 -17.723857 0
M  V30 19 C 11.117103 4.207615 -16.958758 0 CFG=2
M  V30 20 C 8.552794 4.726116 -14.629569 0
M  V30 21 O 8.575417 -1.021715 -16.385030 0
M  V30 22 C 11.933617 3.102069 -17.585012 0
M  V30 23 O 8.618157 4.599684 -11.924023 0
M  V30 24 C 11.665241 8.654620 -6.517102 0
M  V30 25 C 6.577313 5.866493 -13.968159 0 CFG=2
M  V30 26 C 9.593772 4.273176 -17.000139 0 CFG=2
M  V30 27 C 9.636062 6.813013 -12.066032 0 CFG=2
M  V30 28 O 11.560227 2.514057 -18.598437 0
M  V30 29 C 7.378035 -0.402982 -16.828239 0 CFG=2
M  V30 30 C 10.502623 8.327911 -5.827924 0
M  V30 31 C 13.033129 8.390230 -9.896547 0
M  V30 32 O 6.128177 7.189114 -13.641102 0
M  V30 33 C 8.396132 5.916288 -12.393210 0 CFG=1
M  V30 34 C 8.439447 1.971964 -16.938481 0
M  V30 35 N 8.026330 5.849136 -13.825858 0
M  V30 36 H 10.646858 5.990224 -13.871345 0
M  V30 37 H 11.556935 7.190282 -13.111194 0
M  V30 38 H 11.422625 5.590222 -12.384999 0
M  V30 39 H 9.424696 6.105050 -15.986866 0
M  V30 40 H 7.897888 5.516133 -16.562163 0
M  V30 41 H 8.733363 6.950638 -8.375838 0
M  V30 42 H 8.537975 7.455574 -5.985018 0
M  V30 43 H 8.859905 6.794652 -10.057491 0
M  V30 44 H 6.074751 -1.180386 -15.270402 0
M  V30 45 H 5.558365 0.370724 -15.863181 0
M  V30 46 H 13.715170 9.125418 -8.013055 0
M  V30 47 H 6.645911 7.320212 -15.696138 0
M  V30 48 H 4.975426 6.605567 -15.342551 0
M  V30 49 H 8.874860 1.499744 -19.646877 0
M  V30 50 H 5.746679 1.895580 -17.587843 0
M  V30 51 H 6.549137 2.109833 -19.128882 0
M  V30 52 H 5.765407 0.584471 -18.764390 0
M  V30 53 H 12.896754 7.990384 -11.335665 0
M  V30 54 H 7.948866 -0.045994 -14.433202 0
M  V30 55 H 9.127505 3.051866 -18.694886 0
M  V30 56 H 7.743622 3.760959 -17.954654 0
M  V30 57 H 11.604705 4.765509 -16.161837 0
M  V30 58 H 7.870161 3.877207 -14.596275 0
M  V30 59 H 9.489933 4.364924 -14.217717 0
M  V30 60 H 8.334366 -1.816236 -15.910705 0
M  V30 61 H 12.870448 2.866438 -17.079704 0
M  V30 62 H 9.291996 4.661458 -11.261531 0
M  V30 63 H 12.484067 9.131324 -5.998031 0
M  V30 64 H 5.951180 5.070807 -13.566203 0
M  V30 65 H 9.380694 7.824652 -12.384069 0
M  V30 66 H 6.888848 -1.133865 -17.474476 0
M  V30 67 H 10.423489 8.550024 -4.785033 0
M  V30 68 H 14.008904 8.692928 -10.314516 0
M  V30 69 H 7.558483 6.325207 -11.824508 0
M  V30 70 H 7.889668 2.239412 -16.041470 0
M  V30 71 H 9.393505 1.571728 -16.595699 0
M  V30 END ATOM
M  V30 BEGIN BOND
M  V30 1 2 5 2
M  V30 2 1 7 2
M  V30 3 1 8 5
M  V30 4 1 9 7
M  V30 5 1 3 13 CFG=3
M  V30 6 1 14 3
M  V30 7 2 15 7
M  V30 8 1 16 10
M  V30 9 1 17 2
M  V30 10 1 17 11
M  V30 11 1 19 6
M  V30 12 1 20 4
M  V30 13 1 22 19
M  V30 14 2 24 17
M  V30 15 1 25 12
M  V30 16 1 26 4 CFG=1
M  V30 17 1 26 6
M  V30 18 1 26 18
M  V30 19 1 26 19
M  V30 20 1 27 1
M  V30 21 1 27 9
M  V30 22 2 28 22
M  V30 23 1 29 3
M  V30 24 1 29 10
M  V30 25 1 29 21
M  V30 26 2 30 8
M  V30 27 1 30 24
M  V30 28 2 31 11
M  V30 29 1 31 15
M  V30 30 1 32 12
M  V30 31 1 32 25
M  V30 32 1 33 23
M  V30 33 1 33 27
M  V30 34 1 34 3
M  V30 35 1 34 18
M  V30 36 1 35 20
M  V30 37 1 35 25
M  V30 38 1 35 33
M  V30 39 1 36 1
M  V30 40 1 37 1
M  V30 41 1 38 1
M  V30 42 1 39 4
M  V30 43 1 40 4
M  V30 44 1 41 5
M  V30 45 1 42 8
M  V30 46 1 43 9
M  V30 47 1 44 10
M  V30 48 1 45 10
M  V30 49 1 46 11
M  V30 50 1 47 12
M  V30 51 1 48 12
M  V30 52 1 49 13
M  V30 53 1 50 14
M  V30 54 1 51 14
M  V30 55 1 52 14
M  V30 56 1 53 15
M  V30 57 1 54 16
M  V30 58 1 55 18
M  V30 59 1 56 18
M  V30 60 1 19 57 CFG=1
M  V30 61 1 58 20
M  V30 62 1 59 20
M  V30 63 1 60 21
M  V30 64 1 61 22
M  V30 65 1 62 23
M  V30 66 1 63 24
M  V30 67 1 25 64 CFG=1
M  V30 68 1 27 65 CFG=3
M  V30 69 1 29 66 CFG=3
M  V30 70 1 67 30
M  V30 71 1 68 31
M  V30 72 1 33 69 CFG=1
M  V30 73 1 70 34
M  V30 74 1 71 34
M  V30 END BOND
M  V30 END CTAB
M  END
>  <i_epik_Tot_Q>  (1) 
0

>  <i_epik_Tot_abs_Q>  (1) 
0

>  <i_i_glide_confnum>  (1) 
5313

>  <i_i_glide_lignum>  (1) 
95

>  <i_i_glide_posenum>  (1) 
386

>  <i_i_glide_rotatable_bonds>  (1) 
18

>  <i_lp_mmshare_version>  (1) 
72125

>  <i_m_source_file_index>  (1) 
61

>  <i_f3d_flags>  (1) 
0

>  <num_sample>  (1) 
100

>  <b_lp_Chiralities_Consistent>  (1) 
1

>  <r_epik_Charging_Adjusted_Penalty>  (1) 
0

>  <r_epik_Ionization_Penalty>  (1) 
0.014434527225192804

>  <r_epik_Ionization_Penalty_Charging>  (1) 
0

>  <r_epik_Ionization_Penalty_Neutral>  (1) 
0.014434527225192804

>  <r_epik_State_Penalty>  (1) 
-0

>  <r_glide_ring_energy>  (1) 
0

>  <r_i_docking_score>  (1) 
-4.1026887180648579

>  <r_i_glide_ecoul>  (1) 
-7.9291584679974143

>  <r_i_glide_eff_state_penalty>  (1) 
-0

>  <r_i_glide_einternal>  (1) 
9.6417652912046705

>  <r_i_glide_emodel>  (1) 
-32.698054443238973

>  <r_i_glide_emodel_strain>  (1) 
7.5379578168984835

>  <r_i_glide_energy>  (1) 
-36.062711883775783

>  <r_i_glide_erotb>  (1) 
0.88320893883716522

>  <r_i_glide_esite>  (1) 
-0.082920241337584202

>  <r_i_glide_evdw>  (1) 
-28.133553415778369

>  <r_i_glide_gscore>  (1) 
-4.1026887180648579

>  <r_i_glide_gscore_strain>  (1) 
0.88448945422462089

>  <r_i_glide_hbond>  (1) 
-0.32000000000000001

>  <r_i_glide_ligand_efficiency>  (1) 
-0.11721967765899594

>  <r_i_glide_ligand_efficiency_ln>  (1) 
-0.90063122788545957

>  <r_i_glide_ligand_efficiency_sa>  (1) 
-0.38343333848150779

>  <r_i_glide_lipo>  (1) 
-1.8075889578338864

>  <r_i_glide_metal>  (1) 
-0

>  <r_i_glide_rewards>  (1) 
-1.0638264709666423

>  <r_lp_Energy>  (1) 
38.450359999999996

>  <r_lp_tautomer_probability>  (1) 
1

>  <s_epik_Chemistry_Notes>  (1) 
This compound contains an acetal/aminal-like group ( X-CH(R)-Y where X, Y are N, S, or O) that may be acid/base labile, releasing an aldehyde.

>  <s_epik_cmdline>  (1) 
J2VwaWtfcHl0aG9uJywgJy1waHQnLCAnMS4wJywgJy1waCcsICc3LjQnLCAnLXRuJywgJzgnLCAnLW1hJywgJzUwMCcsICctaW1hZScsICc8aW5maWxlLm1hZT4nLCAnLW9tYWUnLCAnPG91dGZpbGUubWFlPic=

>  <s_epik_input>  (1) 
W2NIXTFbY0hdW2NIXVtjSF1jKGMxMilbY0hdW2NIXVtjSF1jMltOSF1bQ0BASF0oW0NIM10pW0NASF0oW09IXSlOKFtDQEBIXTNbQ0gyXU8zKVtDSDJdW0NIMl1bQ0BAXTQoT1tDQEBIXTRbQ0hdPU8pW0NIMl1bQ0gyXVtDQF0oW1NIXSkoW0NIM10pW0NAQEhdKFtPSF0pW0NIMl1bT0hd

>  <s_glide_docking_method>  (1) 
confgen

>  <s_i_glide_gridfile>  (1) 
gpcr_drd2_6luq_protein_autoprepared_prepared

>  <s_lp_Force_Field>  (1) 
S-OPLS

>  <s_lp_Variant>  (1) 
DiffSBDD_60-1

>  <s_m_source_file>  (1) 
generated_generic_title2_ligand_DiffSBDD_2026-06-23_prepared.sdf

>  <GenAI_Model>  (1) 
DiffSBDD

>  <Protein>  (1) 
generic_title2

$$$$
DiffSBDD_17
     RDKit          3D

  0  0  0  0  0  0  0  0  0  0999 V3000
M  V30 BEGIN CTAB
M  V30 COUNTS 42 43 0 0 1
M  V30 BEGIN ATOM
M  V30 1 Cl 8.256549 7.113231 -12.261880 0
M  V30 2 C 9.018300 4.717835 -11.121810 0
M  V30 3 C 8.204275 5.324099 -12.288401 0 CFG=2
M  V30 4 C 12.291217 8.703035 -2.793825 0
M  V30 5 C 6.285156 5.075798 -13.741949 0
M  V30 6 O 8.528605 5.089745 -9.829240 0
M  V30 7 C 9.676370 6.867584 -6.790203 0
M  V30 8 Cl 12.073937 8.790633 -9.402672 0
M  V30 9 C 7.441212 3.289088 -15.150467 0
M  V30 10 O 11.377371 8.337338 -5.046540 0
M  V30 11 O 11.775644 6.589232 -2.136447 0
M  V30 12 C 9.231153 5.965150 -9.019643 0
M  V30 13 O 7.790316 3.118464 -16.337370 0
M  V30 14 C 11.391173 8.710129 -6.420243 0
M  V30 15 C 10.192539 6.847603 -9.561172 0
M  V30 16 C 10.896007 7.729951 -8.722303 0
M  V30 17 C 7.516287 4.724009 -14.602466 0 CFG=2
M  V30 18 C 8.974924 5.982383 -7.633451 0
M  V30 19 C 8.735824 4.878362 -13.664141 0
M  V30 20 O 7.042741 2.398186 -14.370102 0 CHG=-1
M  V30 21 C 12.221267 9.170342 -4.257785 0
M  V30 22 C 6.736564 4.881503 -12.292619 0
M  V30 23 C 10.639298 7.744098 -7.330312 0
M  V30 24 N 12.579321 7.222300 -2.786531 0
M  V30 25 H 10.084223 4.885296 -11.259847 0
M  V30 26 H 8.921820 3.633140 -11.173233 0
M  V30 27 H 13.106436 9.189672 -2.258898 0
M  V30 28 H 11.374620 8.896365 -2.243524 0
M  V30 29 H 5.401556 4.479119 -13.976244 0
M  V30 30 H 6.015478 6.119124 -13.909841 0
M  V30 31 H 9.471545 6.873679 -5.729694 0
M  V30 32 H 12.426471 8.788952 -6.755864 0
M  V30 33 H 10.944492 9.697761 -6.525888 0
M  V30 34 H 10.394497 6.852479 -10.618908 0
M  V30 35 H 7.590584 5.420686 -15.439538 0
M  V30 36 H 8.234262 5.317144 -7.216488 0
M  V30 37 H 9.461959 5.585172 -14.067584 0
M  V30 38 H 9.274594 3.936450 -13.560541 0
M  V30 39 H 13.231766 9.189261 -4.671027 0
M  V30 40 H 11.845575 10.192123 -4.303189 0
M  V30 41 H 6.662927 3.825078 -12.028482 0
M  V30 42 H 6.125030 5.438206 -11.581471 0
M  V30 END ATOM
M  V30 BEGIN BOND
M  V30 1 1 3 1 CFG=3
M  V30 2 1 3 2
M  V30 3 1 6 2
M  V30 4 1 12 6
M  V30 5 2 13 9
M  V30 6 1 14 10
M  V30 7 2 15 12
M  V30 8 1 16 8
M  V30 9 1 16 15
M  V30 10 1 17 5
M  V30 11 1 17 9
M  V30 12 2 18 7
M  V30 13 1 18 12
M  V30 14 1 19 3
M  V30 15 1 19 17
M  V30 16 1 20 9
M  V30 17 1 21 4
M  V30 18 1 21 10
M  V30 19 1 22 3
M  V30 20 1 22 5
M  V30 21 1 23 7
M  V30 22 1 23 14
M  V30 23 2 23 16
M  V30 24 1 24 4
M  V30 25 2 24 11
M  V30 26 1 25 2
M  V30 27 1 26 2
M  V30 28 1 27 4
M  V30 29 1 28 4
M  V30 30 1 29 5
M  V30 31 1 30 5
M  V30 32 1 31 7
M  V30 33 1 32 14
M  V30 34 1 33 14
M  V30 35 1 34 15
M  V30 36 1 17 35 CFG=3
M  V30 37 1 36 18
M  V30 38 1 37 19
M  V30 39 1 38 19
M  V30 40 1 39 21
M  V30 41 1 40 21
M  V30 42 1 41 22
M  V30 43 1 42 22
M  V30 END BOND
M  V30 END CTAB
M  END
>  <i_epik_Tot_Q>  (1) 
-1

>  <i_epik_Tot_abs_Q>  (1) 
1

>  <i_i_glide_confnum>  (1) 
322

>  <i_i_glide_lignum>  (1) 
32

>  <i_i_glide_posenum>  (1) 
173

>  <i_i_glide_rotatable_bonds>  (1) 
9

>  <i_lp_mmshare_version>  (1) 
72125

>  <i_m_source_file_index>  (1) 
18

>  <i_f3d_flags>  (1) 
0

>  <num_sample>  (1) 
100

>  <b_lp_Chiralities_Consistent>  (1) 
1

>  <r_epik_Charging_Adjusted_Penalty>  (1) 
0.00012381605781317179

>  <r_epik_Ionization_Penalty>  (1) 
0.00012381605830283167

>  <r_epik_Ionization_Penalty_Charging>  (1) 
0.00012381605781317179

>  <r_epik_Ionization_Penalty_Neutral>  (1) 
4.8965987375008979e-13

>  <r_epik_State_Penalty>  (1) 
-0

>  <r_glide_ring_energy>  (1) 
0

>  <r_i_docking_score>  (1) 
-4.1020316856155938

>  <r_i_glide_ecoul>  (1) 
1.5697595386488454

>  <r_i_glide_eff_state_penalty>  (1) 
-0

>  <r_i_glide_einternal>  (1) 
9.9175612328032905

>  <r_i_glide_emodel>  (1) 
-40.688440532553926

>  <r_i_glide_emodel_strain>  (1) 
0.03907443506219721

>  <r_i_glide_energy>  (1) 
-37.599918733110385

>  <r_i_glide_erotb>  (1) 
0.96174401237487195

>  <r_i_glide_esite>  (1) 
0

>  <r_i_glide_evdw>  (1) 
-39.169678271759231

>  <r_i_glide_gscore>  (1) 
-4.1020316856155938

>  <r_i_glide_gscore_strain>  (1) 
0

>  <r_i_glide_hbond>  (1) 
0

>  <r_i_glide_ligand_efficiency>  (1) 
-0.17091798690064974

>  <r_i_glide_ligand_efficiency_ln>  (1) 
-0.98180441233663562

>  <r_i_glide_ligand_efficiency_sa>  (1) 
-0.49301278633053869

>  <r_i_glide_lipo>  (1) 
-1.8887535443124306

>  <r_i_glide_metal>  (1) 
-0

>  <r_i_glide_rewards>  (1) 
-1.4520021708874

>  <r_lp_Energy>  (1) 
24.982256

>  <r_lp_tautomer_probability>  (1) 
1

>  <s_epik_cmdline>  (1) 
J2VwaWtfcHl0aG9uJywgJy1waHQnLCAnMS4wJywgJy1waCcsICc3LjQnLCAnLXRuJywgJzgnLCAnLW1hJywgJzUwMCcsICctaW1hZScsICc8aW5maWxlLm1hZT4nLCAnLW9tYWUnLCAnPG91dGZpbGUubWFlPic=

>  <s_epik_input>  (1) 
Tz1DKFtPSF0pW0NAQEhdKFtDSDJdW0NIMl0xKVtDSDJdW0NAXTEoQ2wpW0NIMl1PYzJbY0hdYyhDbCljKFtjSF1bY0hdMilbQ0gyXU9bQ0gyXVtDSDJdTj1P

>  <s_glide_docking_method>  (1) 
confgen

>  <s_i_glide_gridfile>  (1) 
gpcr_drd2_6luq_protein_autoprepared_prepared

>  <s_lp_Force_Field>  (1) 
S-OPLS

>  <s_lp_Variant>  (1) 
DiffSBDD_17-1

>  <s_m_source_file>  (1) 
generated_generic_title2_ligand_DiffSBDD_2026-06-23_prepared.sdf

>  <GenAI_Model>  (1) 
DiffSBDD

>  <Protein>  (1) 
generic_title2

$$$$
DiffSBDD_76
     RDKit          3D

  0  0  0  0  0  0  0  0  0  0999 V3000
M  V30 BEGIN CTAB
M  V30 COUNTS 53 56 0 0 1
M  V30 BEGIN ATOM
M  V30 1 N 8.830247 6.015542 -13.033948 0
M  V30 2 N 11.375256 7.797773 -4.785026 0
M  V30 3 C 8.288238 4.026846 -14.303188 0 CFG=1
M  V30 4 C 10.563137 7.260933 -5.859534 0
M  V30 5 F 7.777593 4.665007 -9.530024 0
M  V30 6 C 11.819487 9.017560 -4.581663 0
M  V30 7 C 7.818537 3.415473 -15.637171 0
M  V30 8 C 7.987959 5.528435 -14.114216 0
M  V30 9 C 10.793560 7.545805 -9.434361 0
M  V30 10 C 8.080924 6.310910 -11.831849 0
M  V30 11 C 6.972130 2.316594 -18.105105 0
M  V30 12 N 11.777462 7.013013 -3.772275 0
M  V30 13 C 6.989829 1.511497 -16.952629 0
M  V30 14 C 7.375411 3.660939 -18.034314 0
M  V30 15 C 7.438121 1.151462 -14.511776 0
M  V30 16 N 11.516041 10.008222 -5.499078 0
M  V30 17 C 8.008105 1.743706 -13.230029 0
M  V30 18 C 7.796770 4.211140 -16.809608 0
M  V30 19 C 10.575409 6.711583 -8.316770 0
M  V30 20 C 7.755350 3.233172 -13.098057 0
M  V30 21 O 7.039025 -0.009772 -14.522691 0
M  V30 22 C 9.563423 5.730145 -8.357227 0
M  V30 23 N 12.531654 9.190224 -3.493025 0
M  V30 24 C 11.419818 6.876645 -7.071252 0
M  V30 25 C 9.994889 7.402534 -10.584119 0
M  V30 26 C 8.763759 5.590228 -9.503618 0
M  V30 27 C 8.975410 6.428610 -10.617640 0
M  V30 28 C 12.476465 7.888727 -3.016546 0
M  V30 29 C 7.415526 2.045581 -15.715433 0
M  V30 30 H 9.604147 5.393256 -12.842860 0
M  V30 31 H 9.375389 3.990227 -14.318326 0
M  V30 32 H 9.997210 6.401808 -5.494946 0
M  V30 33 H 9.824674 8.014964 -6.136421 0
M  V30 34 H 6.926362 5.727534 -13.954292 0
M  V30 35 H 8.290248 6.111258 -14.979155 0
M  V30 36 H 11.567517 8.299166 -9.406315 0
M  V30 37 H 7.324481 5.547858 -11.652076 0
M  V30 38 H 7.537801 7.247666 -11.964967 0
M  V30 39 H 6.648573 1.899771 -19.047527 0
M  V30 40 H 6.681638 0.477218 -17.017396 0
M  V30 41 H 7.361967 4.274222 -18.923226 0
M  V30 42 H 11.832360 10.957813 -5.371967 0
M  V30 43 H 10.959451 9.815780 -6.318910 0
M  V30 44 H 7.563913 1.218474 -12.385026 0
M  V30 45 H 9.076443 1.536271 -13.187987 0
M  V30 46 H 8.106159 5.241746 -16.773886 0
M  V30 47 H 8.223220 3.564741 -12.171744 0
M  V30 48 H 6.683937 3.406097 -12.984458 0
M  V30 49 H 9.392209 5.094233 -7.503545 0
M  V30 50 H 12.175402 7.641176 -7.256285 0
M  V30 51 H 11.955140 5.951709 -6.856246 0
M  V30 52 H 10.152266 8.047808 -11.435606 0
M  V30 53 H 12.957697 7.583741 -2.099117 0
M  V30 END ATOM
M  V30 BEGIN BOND
M  V30 1 1 4 2
M  V30 2 1 6 2
M  V30 3 1 7 3
M  V30 4 1 8 1
M  V30 5 1 8 3
M  V30 6 1 10 1
M  V30 7 1 12 2
M  V30 8 1 13 11
M  V30 9 2 14 11
M  V30 10 1 16 6
M  V30 11 1 17 15
M  V30 12 2 18 7
M  V30 13 1 18 14
M  V30 14 1 19 9
M  V30 15 1 20 3
M  V30 16 1 20 17
M  V30 17 2 21 15
M  V30 18 2 22 19
M  V30 19 2 23 6
M  V30 20 1 24 4
M  V30 21 1 24 19
M  V30 22 2 25 9
M  V30 23 1 26 5
M  V30 24 1 26 22
M  V30 25 1 27 10
M  V30 26 1 27 25
M  V30 27 2 27 26
M  V30 28 2 28 12
M  V30 29 1 28 23
M  V30 30 1 29 7
M  V30 31 2 29 13
M  V30 32 1 29 15
M  V30 33 1 30 1
M  V30 34 1 3 31 CFG=3
M  V30 35 1 32 4
M  V30 36 1 33 4
M  V30 37 1 34 8
M  V30 38 1 35 8
M  V30 39 1 36 9
M  V30 40 1 37 10
M  V30 41 1 38 10
M  V30 42 1 39 11
M  V30 43 1 40 13
M  V30 44 1 41 14
M  V30 45 1 42 16
M  V30 46 1 43 16
M  V30 47 1 44 17
M  V30 48 1 45 17
M  V30 49 1 46 18
M  V30 50 1 47 20
M  V30 51 1 48 20
M  V30 52 1 49 22
M  V30 53 1 50 24
M  V30 54 1 51 24
M  V30 55 1 52 25
M  V30 56 1 53 28
M  V30 END BOND
M  V30 END CTAB
M  END
>  <i_epik_Tot_Q>  (1) 
0

>  <i_epik_Tot_abs_Q>  (1) 
0

>  <i_i_glide_confnum>  (1) 
225

>  <i_i_glide_lignum>  (1) 
127

>  <i_i_glide_posenum>  (1) 
93

>  <i_i_glide_rotatable_bonds>  (1) 
7

>  <i_lp_mmshare_version>  (1) 
72125

>  <i_m_source_file_index>  (1) 
77

>  <i_f3d_flags>  (1) 
0

>  <num_sample>  (1) 
100

>  <b_lp_Chiralities_Consistent>  (1) 
1

>  <r_epik_Charging_Adjusted_Penalty>  (1) 
1.3366453936174523

>  <r_epik_Ionization_Penalty>  (1) 
1.3374163863907844

>  <r_epik_Ionization_Penalty_Charging>  (1) 
0

>  <r_epik_Ionization_Penalty_Neutral>  (1) 
1.3374163863907844

>  <r_epik_State_Penalty>  (1) 
1.3366453936174523

>  <r_glide_ring_energy>  (1) 
0

>  <r_i_docking_score>  (1) 
-4.0934972415315629

>  <r_i_glide_ecoul>  (1) 
0.39277184020638245

>  <r_i_glide_eff_state_penalty>  (1) 
1.3366453936174523

>  <r_i_glide_einternal>  (1) 
10.442528701013794

>  <r_i_glide_emodel>  (1) 
-50.56295387485028

>  <r_i_glide_emodel_strain>  (1) 
0.32290772062622608

>  <r_i_glide_energy>  (1) 
-41.717025591616135

>  <r_i_glide_erotb>  (1) 
0.75709287640511513

>  <r_i_glide_esite>  (1) 
-0.056232379030496563

>  <r_i_glide_evdw>  (1) 
-42.109797431822514

>  <r_i_glide_gscore>  (1) 
-5.4301426351490152

>  <r_i_glide_gscore_strain>  (1) 
0

>  <r_i_glide_hbond>  (1) 
0

>  <r_i_glide_ligand_efficiency>  (1) 
-0.14115507729419183

>  <r_i_glide_ligand_efficiency_ln>  (1) 
-0.93730706617697579

>  <r_i_glide_ligand_efficiency_sa>  (1) 
-0.43367311900193189

>  <r_i_glide_lipo>  (1) 
-1.4069234234690025

>  <r_i_glide_metal>  (1) 
-0

>  <r_i_glide_rewards>  (1) 
-2.6775056134944628

>  <r_lp_Energy>  (1) 
25.916193

>  <r_lp_tautomer_probability>  (1) 
0.99994999147066566

>  <s_epik_cmdline>  (1) 
J2VwaWtfcHl0aG9uJywgJy1waHQnLCAnMS4wJywgJy1waCcsICc3LjQnLCAnLXRuJywgJzgnLCAnLW1hJywgJzUwMCcsICctaW1hZScsICc8aW5maWxlLm1hZT4nLCAnLW9tYWUnLCAnPG91dGZpbGUubWFlPic=

>  <s_epik_input>  (1) 
W2NIXTFbY0hdW2NIXVtjSF1jKGMxMilDKD1PKVtDSDJdW0NIMl1bQ0BIXTJbQ0gyXVtOSF1bQ0gyXWMoYyhGKVtjSF0zKVtjSF1bY0hdYzNbQ0gyXVtDSDJdbjRjKFtOSDJdKW5bY0hdbjQ=

>  <s_glide_docking_method>  (1) 
confgen

>  <s_i_glide_gridfile>  (1) 
gpcr_drd2_6luq_protein_autoprepared_prepared

>  <s_lp_Force_Field>  (1) 
S-OPLS

>  <s_lp_Variant>  (1) 
DiffSBDD_76-4

>  <s_m_source_file>  (1) 
generated_generic_title2_ligand_DiffSBDD_2026-06-23_prepared.sdf

>  <GenAI_Model>  (1) 
DiffSBDD

>  <Protein>  (1) 
generic_title2

$$$$
DiffSBDD_73
     RDKit          3D

  0  0  0  0  0  0  0  0  0  0999 V3000
M  V30 BEGIN CTAB
M  V30 COUNTS 73 79 0 0 1
M  V30 BEGIN ATOM
M  V30 1 O 9.375396 3.854782 -11.775504 0
M  V30 2 C 11.544446 6.841720 -6.786685 0
M  V30 3 C 7.733517 3.966374 -14.215972 0
M  V30 4 C 8.266759 4.720098 -11.821724 0 CFG=2
M  V30 5 O 7.056259 6.110867 -13.392226 0
M  V30 6 C 7.776199 4.313733 -15.710746 0
M  V30 7 C 9.054745 8.414377 -6.830426 0
M  V30 8 C 9.090905 0.208357 -18.588333 0 CFG=2
M  V30 9 O 6.857954 0.489272 -17.729674 0
M  V30 10 C 8.092182 5.154237 -13.296531 0 CFG=2
M  V30 11 C 6.809813 -1.018184 -20.416888 0
M  V30 12 C 11.666195 8.332436 -6.962162 0 CFG=1
M  V30 13 F 8.575416 0.166961 -16.291771 0
M  V30 14 C 9.004645 6.966575 -7.261665 0 CFG=1
M  V30 15 F 4.517060 -0.617964 -16.681700 0
M  V30 16 C 9.775113 7.573533 -9.672882 0 CFG=1
M  V30 17 C 6.530806 -0.902064 -17.834788 0 CFG=2
M  V30 18 C 8.230210 0.757783 -17.433307 0 CFG=1
M  V30 19 C 11.151316 8.207277 -9.507930 0
M  V30 20 C 8.451635 2.255438 -17.264879 0 CFG=1
M  V30 21 C 7.294263 -1.515538 -19.041227 0 CFG=1
M  V30 22 C 7.624939 3.231316 -18.078035 0
M  V30 23 F 4.446835 -0.311721 -18.824726 0
M  V30 24 C 11.299681 9.044626 -8.244413 0 CFG=1
M  V30 25 C 8.721225 5.399910 -9.348393 0
M  V30 26 F 7.132983 -2.839200 -19.033132 0
M  V30 27 C 4.993773 -1.040625 -17.852242 0
M  V30 28 C 9.515464 6.931348 -11.052035 0 CFG=1
M  V30 29 C 8.437744 5.868070 -10.789802 0 CFG=1
M  V30 30 C 7.423996 3.129023 -16.586888 0 CFG=2
M  V30 31 C 9.473500 6.512991 -8.631764 0 CFG=2
M  V30 32 O 9.020769 7.923384 -11.934038 0
M  V30 33 F 4.632276 -2.313389 -18.011757 0
M  V30 34 C 8.800943 -1.270686 -18.846134 0
M  V30 35 F 10.390865 0.376188 -18.337370 0
M  V30 36 C 10.277092 6.207527 -7.355706 0 CFG=1
M  V30 37 C 10.401952 9.104672 -6.995659 0 CFG=1
M  V30 38 H 9.340655 3.344988 -10.979580 0
M  V30 39 H 12.429760 6.371903 -7.184816 0
M  V30 40 H 11.557223 6.634857 -5.716203 0
M  V30 41 H 8.423852 3.141412 -14.042852 0
M  V30 42 H 6.745256 3.586394 -13.952014 0
M  V30 43 H 7.391893 4.137434 -11.528764 0
M  V30 44 H 7.345970 6.883796 -12.926619 0
M  V30 45 H 7.066002 5.113933 -15.922182 0
M  V30 46 H 8.762861 4.686958 -15.986237 0
M  V30 47 H 8.289326 8.988711 -7.347411 0
M  V30 48 H 8.798641 8.422287 -5.778382 0
M  V30 49 H 8.891229 0.782662 -19.493697 0
M  V30 50 H 9.016028 5.616343 -13.648035 0
M  V30 51 H 6.819906 0.069757 -20.482041 0
M  V30 52 H 7.439369 -1.405205 -21.217989 0
M  V30 53 H 5.793929 -1.352430 -20.627056 0
M  V30 54 H 12.487061 8.789854 -6.412094 0
M  V30 55 H 8.175393 6.413779 -6.827293 0
M  V30 56 H 9.035663 8.364511 -9.539345 0
M  V30 57 H 6.869298 -1.412621 -16.931272 0
M  V30 58 H 11.933252 7.447503 -9.534275 0
M  V30 59 H 11.347296 8.853726 -10.362369 0
M  V30 60 H 9.489205 2.529685 -17.082635 0
M  V30 61 H 6.832793 2.841162 -18.713964 0
M  V30 62 H 8.132903 4.112862 -18.463567 0
M  V30 63 H 11.775490 9.990266 -8.455336 0
M  V30 64 H 7.793315 5.161136 -8.826805 0
M  V30 65 H 9.348403 4.509175 -9.323438 0
M  V30 66 H 10.419218 6.469582 -11.450919 0
M  V30 67 H 7.481523 6.389597 -10.785260 0
M  V30 68 H 6.575409 2.565879 -16.222231 0
M  V30 69 H 8.333528 8.382554 -11.467453 0
M  V30 70 H 9.150968 -1.850522 -17.989562 0
M  V30 71 H 9.365143 -1.609763 -19.715119 0
M  V30 72 H 10.198206 5.190235 -7.045157 0
M  V30 73 H 10.475478 9.999565 -6.384991 0
M  V30 END ATOM
M  V30 BEGIN BOND
M  V30 1 1 4 1
M  V30 2 1 6 3
M  V30 3 1 10 3
M  V30 4 1 10 4
M  V30 5 1 10 5
M  V30 6 1 12 2
M  V30 7 1 14 7
M  V30 8 1 17 9
M  V30 9 1 18 8
M  V30 10 1 18 9
M  V30 11 1 18 13 CFG=1
M  V30 12 1 19 16
M  V30 13 1 20 18
M  V30 14 1 21 11
M  V30 15 1 21 17
M  V30 16 1 22 20
M  V30 17 1 24 12
M  V30 18 1 24 19
M  V30 19 1 21 26 CFG=3
M  V30 20 1 27 15
M  V30 21 1 27 17
M  V30 22 1 27 23
M  V30 23 1 28 16
M  V30 24 1 29 4
M  V30 25 1 29 25
M  V30 26 1 29 28
M  V30 27 1 30 6
M  V30 28 1 30 20
M  V30 29 1 30 22
M  V30 30 1 31 14
M  V30 31 1 31 16
M  V30 32 1 31 25 CFG=3
M  V30 33 1 32 28
M  V30 34 1 33 27
M  V30 35 1 34 8
M  V30 36 1 34 21
M  V30 37 1 35 8
M  V30 38 1 36 2
M  V30 39 1 36 14
M  V30 40 1 36 31
M  V30 41 1 37 7
M  V30 42 1 37 12
M  V30 43 1 37 24
M  V30 44 1 38 1
M  V30 45 1 39 2
M  V30 46 1 40 2
M  V30 47 1 41 3
M  V30 48 1 42 3
M  V30 49 1 4 43 CFG=1
M  V30 50 1 44 5
M  V30 51 1 45 6
M  V30 52 1 46 6
M  V30 53 1 47 7
M  V30 54 1 48 7
M  V30 55 1 8 49 CFG=3
M  V30 56 1 10 50 CFG=3
M  V30 57 1 51 11
M  V30 58 1 52 11
M  V30 59 1 53 11
M  V30 60 1 12 54 CFG=1
M  V30 61 1 14 55 CFG=1
M  V30 62 1 16 56 CFG=1
M  V30 63 1 17 57 CFG=1
M  V30 64 1 58 19
M  V30 65 1 59 19
M  V30 66 1 20 60 CFG=1
M  V30 67 1 61 22
M  V30 68 1 62 22
M  V30 69 1 24 63 CFG=3
M  V30 70 1 64 25
M  V30 71 1 65 25
M  V30 72 1 28 66 CFG=3
M  V30 73 1 29 67 CFG=1
M  V30 74 1 30 68 CFG=3
M  V30 75 1 69 32
M  V30 76 1 70 34
M  V30 77 1 71 34
M  V30 78 1 36 72 CFG=1
M  V30 79 1 37 73 CFG=1
M  V30 END BOND
M  V30 END CTAB
M  END
>  <i_epik_Tot_Q>  (1) 
0

>  <i_epik_Tot_abs_Q>  (1) 
0

>  <i_i_glide_confnum>  (1) 
65

>  <i_i_glide_lignum>  (1) 
120

>  <i_i_glide_posenum>  (1) 
387

>  <i_i_glide_rotatable_bonds>  (1) 
10

>  <i_lp_mmshare_version>  (1) 
72125

>  <i_m_source_file_index>  (1) 
74

>  <i_f3d_flags>  (1) 
0

>  <num_sample>  (1) 
100

>  <b_lp_Chiralities_Consistent>  (1) 
1

>  <r_epik_Charging_Adjusted_Penalty>  (1) 
0

>  <r_epik_Ionization_Penalty>  (1) 
7.8331544483768561e-07

>  <r_epik_Ionization_Penalty_Charging>  (1) 
0

>  <r_epik_Ionization_Penalty_Neutral>  (1) 
7.8331544483768561e-07

>  <r_epik_State_Penalty>  (1) 
-0

>  <r_glide_ring_energy>  (1) 
0

>  <r_i_docking_score>  (1) 
-4.0797931247741808

>  <r_i_glide_ecoul>  (1) 
-2.1656252510542466

>  <r_i_glide_eff_state_penalty>  (1) 
-0

>  <r_i_glide_einternal>  (1) 
2.5591645909133121

>  <r_i_glide_emodel>  (1) 
-32.977216196756395

>  <r_i_glide_emodel_strain>  (1) 
0.14999510285161932

>  <r_i_glide_energy>  (1) 
-33.41321454238328

>  <r_i_glide_erotb>  (1) 
0.42742290402324423

>  <r_i_glide_esite>  (1) 
-0.0054721398314899437

>  <r_i_glide_evdw>  (1) 
-31.247589291329032

>  <r_i_glide_gscore>  (1) 
-4.0797931247741808

>  <r_i_glide_gscore_strain>  (1) 
0

>  <r_i_glide_hbond>  (1) 
0

>  <r_i_glide_ligand_efficiency>  (1) 
-0.11026467904795083

>  <r_i_glide_ligand_efficiency_ln>  (1) 
-0.8848114848426224

>  <r_i_glide_ligand_efficiency_sa>  (1) 
-0.36742637298830949

>  <r_i_glide_lipo>  (1) 
-1.8142269780918501

>  <r_i_glide_metal>  (1) 
-0

>  <r_i_glide_rewards>  (1) 
-0.8002936586494962

>  <r_lp_Energy>  (1) 
61.599440999999999

>  <r_lp_tautomer_probability>  (1) 
1

>  <s_epik_cmdline>  (1) 
J2VwaWtfcHl0aG9uJywgJy1waHQnLCAnMS4wJywgJy1waCcsICc3LjQnLCAnLXRuJywgJzgnLCAnLW1hJywgJzUwMCcsICctaW1hZScsICc8aW5maWxlLm1hZT4nLCAnLW9tYWUnLCAnPG91dGZpbGUubWFlPic=

>  <s_epik_input>  (1) 
QzEyM1tDQEhdNFtDQEBIXTNbQ0gyXVtDQEhdNVtDQEhdKFtDQEhdNVtDSDJdNClbQ0gyXVtDQEhdMVtDQEhdKFtPSF0pW0NASF0oW0NIMl0yKVtDQEBIXShbT0hdKVtDQEhdKFtPSF0pW0NIMl1bQ0gyXVtDQEhdNltDSDJdW0NAQEhdNltDQF03KEYpW0NAQEhdKEYpW0NIMl1bQ0BdKEYpKFtDSDNdKVtDQEBIXShPNylDKEYpKEYpRg==

>  <s_glide_docking_method>  (1) 
confgen

>  <s_i_glide_gridfile>  (1) 
gpcr_drd2_6luq_protein_autoprepared_prepared

>  <s_lp_Force_Field>  (1) 
S-OPLS

>  <s_lp_Variant>  (1) 
DiffSBDD_73-1

>  <s_m_source_file>  (1) 
generated_generic_title2_ligand_DiffSBDD_2026-06-23_prepared.sdf

>  <GenAI_Model>  (1) 
DiffSBDD

>  <Protein>  (1) 
generic_title2

$$$$
DiffSBDD_70
     RDKit          3D

  0  0  0  0  0  0  0  0  0  0999 V3000
M  V30 BEGIN CTAB
M  V30 COUNTS 74 78 0 0 1
M  V30 BEGIN ATOM
M  V30 1 C 7.302396 0.313746 -13.795763 0
M  V30 2 C 11.186824 7.801417 -10.258279 0
M  V30 3 C 8.625885 1.774887 -16.927557 0
M  V30 4 C 9.688013 7.516049 -10.110896 0
M  V30 5 C 14.175414 8.339452 -18.595181 0
M  V30 6 N 13.156277 7.439825 -16.603551 0
M  V30 7 C 6.058933 4.206871 -10.631265 0
M  V30 8 C 8.106560 5.590207 -10.019737 0 CFG=1
M  V30 9 C 8.195726 5.170228 -8.561181 0
M  V30 10 C 6.315937 1.008212 -16.395326 0
M  V30 11 C 7.406448 4.770276 -11.105483 0 CFG=2
M  V30 12 O 12.357696 3.838668 -18.465661 0
M  V30 13 C 9.420993 5.124995 -9.428958 0 CFG=2
M  V30 14 C 7.892145 5.073174 -13.634142 0
M  V30 15 C 7.185030 5.579549 -12.382076 0
M  V30 16 C 7.595465 1.663280 -15.813871 0 CFG=1
M  V30 17 C 14.305471 6.959730 -20.603326 0
M  V30 18 C 11.419601 2.939685 -17.860040 0
M  V30 19 O 8.175486 0.879024 -14.767675 0
M  V30 20 Cl 15.345427 9.462845 -20.774676 0
M  V30 21 C 7.710732 3.564482 -13.938660 0
M  V30 22 C 8.359438 4.056164 -16.426859 0 CFG=2
M  V30 23 C 14.559719 8.173438 -19.940261 0
M  V30 24 C 6.410413 6.679642 -12.401409 0
M  V30 25 C 7.487343 4.978575 -17.306776 0
M  V30 26 N 8.984617 3.015744 -17.199744 0
M  V30 27 C 13.665315 5.911513 -19.922461 0
M  V30 28 C 9.984332 3.377611 -18.214436 0
M  V30 29 C 13.529990 7.296762 -17.894984 0
M  V30 30 N 12.245999 5.204920 -16.582751 0
M  V30 31 C 12.545622 6.389956 -16.037694 0
M  V30 32 N 9.375400 6.120560 -10.481009 0 CFG=2 CHG=1
M  V30 33 O 9.071417 0.780398 -17.502389 0
M  V30 34 C 7.478944 3.206193 -15.430219 0 CFG=1
M  V30 35 C 12.632219 5.060518 -17.868117 0
M  V30 36 C 13.280070 6.083430 -18.577484 0
M  V30 37 H 7.887466 -0.009642 -12.935779 0
M  V30 38 H 6.549755 1.013843 -13.437727 0
M  V30 39 H 6.788620 -0.560679 -14.195974 0
M  V30 40 H 11.405838 8.845762 -10.034169 0
M  V30 41 H 11.770716 7.190589 -9.569735 0
M  V30 42 H 11.535054 7.588449 -11.269231 0
M  V30 43 H 9.114472 8.177472 -10.762174 0
M  V30 44 H 9.375393 7.733590 -9.088262 0
M  V30 45 H 14.372086 9.275531 -18.094626 0
M  V30 46 H 5.595771 3.590310 -11.400391 0
M  V30 47 H 6.175420 3.588534 -9.745638 0
M  V30 48 H 5.356417 5.003124 -10.384810 0
M  V30 49 H 8.175078 5.956854 -7.809689 0
M  V30 50 H 7.771540 4.222294 -8.241031 0
M  V30 51 H 5.895905 1.593191 -17.213228 0
M  V30 52 H 6.535250 0.016192 -16.793295 0
M  V30 53 H 5.530753 0.874070 -15.653794 0
M  V30 54 H 8.053622 3.926170 -11.339212 0
M  V30 55 H 9.775224 4.165086 -9.797334 0
M  V30 56 H 7.521798 5.669155 -14.466524 0
M  V30 57 H 8.955667 5.302753 -13.556003 0
M  V30 58 H 14.601212 6.834827 -21.634864 0
M  V30 59 H 11.568485 2.844295 -16.785039 0
M  V30 60 H 11.595974 1.940829 -18.259532 0
M  V30 61 H 8.575558 3.026989 -13.552635 0
M  V30 62 H 6.852432 3.193932 -13.380479 0
M  V30 63 H 9.141279 4.622188 -15.919045 0
M  V30 64 H 5.915706 7.029335 -11.505665 0
M  V30 65 H 6.262617 7.242119 -13.311274 0
M  V30 66 H 6.902850 5.667783 -16.698308 0
M  V30 67 H 8.088042 5.588239 -17.981541 0
M  V30 68 H 6.784687 4.406944 -17.914650 0
M  V30 69 H 13.467048 4.977970 -20.430328 0
M  V30 70 H 9.696786 2.970546 -19.184756 0
M  V30 71 H 9.975886 4.459193 -18.342471 0
M  V30 72 H 12.253715 6.517988 -15.006191 0
M  V30 73 H 6.448599 3.496568 -15.585046 0
M  V30 74 H 9.630878 5.799999 -11.403870 0
M  V30 END ATOM
M  V30 BEGIN BOND
M  V30 1 1 4 2
M  V30 2 1 8 9 CFG=1
M  V30 3 1 11 7
M  V30 4 1 11 8
M  V30 5 1 13 8
M  V30 6 1 13 9
M  V30 7 1 15 11
M  V30 8 1 15 14
M  V30 9 1 16 3
M  V30 10 1 16 10
M  V30 11 1 18 12
M  V30 12 1 19 1
M  V30 13 1 16 19 CFG=1
M  V30 14 1 21 14
M  V30 15 2 23 5
M  V30 16 1 23 17
M  V30 17 1 23 20
M  V30 18 2 24 15
M  V30 19 1 25 22
M  V30 20 1 26 3
M  V30 21 1 26 22
M  V30 22 2 27 17
M  V30 23 1 28 18
M  V30 24 1 28 26
M  V30 25 1 29 5
M  V30 26 2 29 6
M  V30 27 1 31 6
M  V30 28 2 31 30
M  V30 29 1 32 4
M  V30 30 1 32 8
M  V30 31 1 32 13
M  V30 32 2 33 3
M  V30 33 1 34 16
M  V30 34 1 34 21
M  V30 35 1 34 22
M  V30 36 1 35 12
M  V30 37 1 35 30
M  V30 38 1 36 27
M  V30 39 1 36 29
M  V30 40 2 36 35
M  V30 41 1 37 1
M  V30 42 1 38 1
M  V30 43 1 39 1
M  V30 44 1 40 2
M  V30 45 1 41 2
M  V30 46 1 42 2
M  V30 47 1 43 4
M  V30 48 1 44 4
M  V30 49 1 45 5
M  V30 50 1 46 7
M  V30 51 1 47 7
M  V30 52 1 48 7
M  V30 53 1 49 9
M  V30 54 1 50 9
M  V30 55 1 51 10
M  V30 56 1 52 10
M  V30 57 1 53 10
M  V30 58 1 11 54 CFG=3
M  V30 59 1 13 55 CFG=3
M  V30 60 1 56 14
M  V30 61 1 57 14
M  V30 62 1 58 17
M  V30 63 1 59 18
M  V30 64 1 60 18
M  V30 65 1 61 21
M  V30 66 1 62 21
M  V30 67 1 22 63 CFG=1
M  V30 68 1 64 24
M  V30 69 1 65 24
M  V30 70 1 66 25
M  V30 71 1 67 25
M  V30 72 1 68 25
M  V30 73 1 69 27
M  V30 74 1 70 28
M  V30 75 1 71 28
M  V30 76 1 72 31
M  V30 77 1 34 73 CFG=3
M  V30 78 1 32 74 CFG=3
M  V30 END BOND
M  V30 END CTAB
M  END
>  <i_epik_Tot_Q>  (1) 
1

>  <i_epik_Tot_abs_Q>  (1) 
1

>  <i_i_glide_confnum>  (1) 
487

>  <i_i_glide_lignum>  (1) 
114

>  <i_i_glide_posenum>  (1) 
185

>  <i_i_glide_rotatable_bonds>  (1) 
11

>  <i_lp_mmshare_version>  (1) 
72125

>  <i_m_source_file_index>  (1) 
71

>  <i_f3d_flags>  (1) 
0

>  <num_sample>  (1) 
100

>  <b_lp_Chiralities_Consistent>  (1) 
1

>  <r_epik_Charging_Adjusted_Penalty>  (1) 
0.028882640618341202

>  <r_epik_Ionization_Penalty>  (1) 
0.014531529159765241

>  <r_epik_Ionization_Penalty_Charging>  (1) 
0.014441320309170608

>  <r_epik_Ionization_Penalty_Neutral>  (1) 
9.020885059463329e-05

>  <r_epik_State_Penalty>  (1) 
0.014441320309170594

>  <r_glide_ring_energy>  (1) 
0

>  <r_i_docking_score>  (1) 
-4.0787986820095625

>  <r_i_glide_ecoul>  (1) 
-2.7772146364322081

>  <r_i_glide_eff_state_penalty>  (1) 
0.014441320309170594

>  <r_i_glide_einternal>  (1) 
9.6273592790011584

>  <r_i_glide_emodel>  (1) 
-48.3110805228347

>  <r_i_glide_emodel_strain>  (1) 
0

>  <r_i_glide_energy>  (1) 
-40.642649164641838

>  <r_i_glide_erotb>  (1) 
0.62084064417162321

>  <r_i_glide_esite>  (1) 
-0.064499732918221753

>  <r_i_glide_evdw>  (1) 
-37.865434528209633

>  <r_i_glide_gscore>  (1) 
-4.0932400023187334

>  <r_i_glide_gscore_strain>  (1) 
0

>  <r_i_glide_hbond>  (1) 
0

>  <r_i_glide_ligand_efficiency>  (1) 
-0.11329996338915452

>  <r_i_glide_ligand_efficiency_ln>  (1) 
-0.88988367600886253

>  <r_i_glide_ligand_efficiency_sa>  (1) 
-0.37410823641341295

>  <r_i_glide_lipo>  (1) 
-1.2075311686745525

>  <r_i_glide_metal>  (1) 
-0

>  <r_i_glide_rewards>  (1) 
-1.1321958230222697

>  <r_lp_Energy>  (1) 
37.300145999999998

>  <r_lp_tautomer_probability>  (1) 
1

>  <s_epik_cmdline>  (1) 
J2VwaWtfcHl0aG9uJywgJy1waHQnLCAnMS4wJywgJy1waCcsICc3LjQnLCAnLXRuJywgJzgnLCAnLW1hJywgJzUwMCcsICctaW1hZScsICc8aW5maWxlLm1hZT4nLCAnLW9tYWUnLCAnPG91dGZpbGUubWFlPic=

>  <s_epik_input>  (1) 
W2NIXTFjKENsKVtjSF1bY0hdYyhjMTIpYyhuW2NIXW4yKU9bQ0gyXVtDSDJdTihDKD1PKVtDQEBdMyhbQ0gzXSlPW0NIM10pW0NAQEhdKFtDSDNdKVtDQEBIXTNbQ0gyXVtDSDJdQyg9W0NIMl0pW0NASF0oW0NIM10pQzQ1W0NASF0oW0NIMl00KU41W0NIMl1bQ0gzXQ==

>  <s_glide_docking_method>  (1) 
confgen

>  <s_i_glide_gridfile>  (1) 
gpcr_drd2_6luq_protein_autoprepared_prepared

>  <s_lp_Force_Field>  (1) 
S-OPLS

>  <s_lp_Variant>  (1) 
DiffSBDD_70-2

>  <s_m_source_file>  (1) 
generated_generic_title2_ligand_DiffSBDD_2026-06-23_prepared.sdf

>  <GenAI_Model>  (1) 
DiffSBDD

>  <Protein>  (1) 
generic_title2

$$$$
DiffSBDD_73
     RDKit          3D

  0  0  0  0  0  0  0  0  0  0999 V3000
M  V30 BEGIN CTAB
M  V30 COUNTS 73 79 0 0 1
M  V30 BEGIN ATOM
M  V30 1 O 6.409631 7.510254 -11.985054 0
M  V30 2 C 9.361488 8.685153 -7.117910 0
M  V30 3 C 5.796036 5.505791 -14.140259 0
M  V30 4 C 7.436186 6.734151 -12.576694 0 CFG=2
M  V30 5 O 7.835875 4.473663 -13.429904 0
M  V30 6 C 6.412208 5.909820 -15.485375 0
M  V30 7 C 11.874962 7.662744 -8.415223 0
M  V30 8 C 6.323977 5.689795 -19.610438 0 CFG=2
M  V30 9 O 5.573632 7.967349 -19.868938 0
M  V30 10 C 6.829257 5.375471 -13.011738 0 CFG=2
M  V30 11 C 7.476602 7.115705 -22.166434 0
M  V30 12 C 10.177093 7.631367 -6.437110 0 CFG=1
M  V30 13 F 4.175433 6.390252 -19.001097 0
M  V30 14 C 10.851793 8.453974 -9.185426 0 CFG=1
M  V30 15 F 4.722139 9.028847 -23.181310 0
M  V30 16 C 9.481002 6.202114 -9.391196 0 CFG=1
M  V30 17 C 5.145992 7.777608 -21.219569 0 CFG=2
M  V30 18 C 5.433482 6.814599 -19.044926 0 CFG=1
M  V30 19 C 9.121836 5.805059 -7.957633 0
M  V30 20 C 5.848514 7.189612 -17.642445 0 CFG=1
M  V30 21 C 6.020452 6.687026 -21.902871 0 CFG=1
M  V30 22 C 4.917294 7.782979 -16.604168 0
M  V30 23 F 4.198641 9.921513 -21.289930 0
M  V30 24 C 10.119132 6.215946 -6.896898 0 CFG=1
M  V30 25 C 9.199183 7.929891 -11.103867 0
M  V30 26 F 5.483056 6.385748 -23.084383 0
M  V30 27 C 5.100082 9.157332 -21.909437 0
M  V30 28 C 8.490832 5.690700 -10.432973 0 CFG=1
M  V30 29 C 8.666395 6.604488 -11.649856 0 CFG=1
M  V30 30 C 5.383200 6.349338 -16.487946 0 CFG=2
M  V30 31 C 9.647538 7.686089 -9.673024 0 CFG=2
M  V30 32 O 8.841317 4.379166 -10.797285 0
M  V30 33 F 6.281602 9.773775 -21.865303 0
M  V30 34 C 5.961872 5.394217 -21.068066 0
M  V30 35 F 6.214090 4.579036 -18.879765 0
M  V30 36 C 9.502255 8.775510 -8.626521 0 CFG=1
M  V30 37 C 11.379713 7.039670 -7.112463 0 CFG=1
M  V30 38 H 6.575487 7.590090 -11.038247 0
M  V30 39 H 8.313436 8.611197 -6.824653 0
M  V30 40 H 9.775352 9.590226 -6.713487 0
M  V30 41 H 5.288504 4.550043 -14.257018 0
M  V30 42 H 5.029897 6.225121 -13.847884 0
M  V30 43 H 7.772347 7.296424 -13.444692 0
M  V30 44 H 8.377048 4.289982 -12.667137 0
M  V30 45 H 7.129111 6.718214 -15.367303 0
M  V30 46 H 6.967566 5.072483 -15.908328 0
M  V30 47 H 12.175458 6.879341 -9.099064 0
M  V30 48 H 12.740554 8.291787 -8.208664 0
M  V30 49 H 7.371497 5.983804 -19.539945 0
M  V30 50 H 6.332952 4.922149 -12.151790 0
M  V30 51 H 7.964482 7.481986 -21.262419 0
M  V30 52 H 8.068224 6.280619 -22.545092 0
M  V30 53 H 7.530112 7.906048 -22.914981 0
M  V30 54 H 10.251388 7.772307 -5.360704 0
M  V30 55 H 11.281250 9.184179 -9.868614 0
M  V30 56 H 10.437215 5.741795 -9.585024 0
M  V30 57 H 4.118418 7.412703 -21.204729 0
M  V30 58 H 8.166097 6.226670 -7.683908 0
M  V30 59 H 9.000399 4.722904 -7.907707 0
M  V30 60 H 6.880450 7.514705 -17.584174 0
M  V30 61 H 3.879999 7.953484 -16.885500 0
M  V30 62 H 5.334531 8.508262 -15.906593 0
M  V30 63 H 10.091780 5.590248 -6.020818 0
M  V30 64 H 10.033570 8.277371 -11.711136 0
M  V30 65 H 8.449558 8.720406 -11.120848 0
M  V30 66 H 7.469493 5.714439 -10.053078 0
M  V30 67 H 9.483320 6.196860 -12.250031 0
M  V30 68 H 4.636685 5.590239 -16.708967 0
M  V30 69 H 8.856418 3.848239 -10.015319 0
M  V30 70 H 4.954937 4.975352 -21.108986 0
M  V30 71 H 6.626216 4.632751 -21.477312 0
M  V30 72 H 8.939485 9.590227 -9.047838 0
M  V30 73 H 12.175410 6.678984 -6.478067 0
M  V30 END ATOM
M  V30 BEGIN BOND
M  V30 1 1 4 1
M  V30 2 1 6 3
M  V30 3 1 10 3
M  V30 4 1 10 4
M  V30 5 1 10 5
M  V30 6 1 12 2
M  V30 7 1 14 7
M  V30 8 1 17 9
M  V30 9 1 18 8
M  V30 10 1 18 9
M  V30 11 1 18 13 CFG=1
M  V30 12 1 19 16
M  V30 13 1 20 18
M  V30 14 1 21 11
M  V30 15 1 21 17
M  V30 16 1 22 20
M  V30 17 1 24 12
M  V30 18 1 24 19
M  V30 19 1 21 26 CFG=3
M  V30 20 1 27 15
M  V30 21 1 27 17
M  V30 22 1 27 23
M  V30 23 1 28 16
M  V30 24 1 29 4
M  V30 25 1 29 25
M  V30 26 1 29 28
M  V30 27 1 30 6
M  V30 28 1 30 20
M  V30 29 1 30 22
M  V30 30 1 31 14
M  V30 31 1 31 16
M  V30 32 1 31 25 CFG=3
M  V30 33 1 32 28
M  V30 34 1 33 27
M  V30 35 1 34 8
M  V30 36 1 34 21
M  V30 37 1 35 8
M  V30 38 1 36 2
M  V30 39 1 36 14
M  V30 40 1 36 31
M  V30 41 1 37 7
M  V30 42 1 37 12
M  V30 43 1 37 24
M  V30 44 1 38 1
M  V30 45 1 39 2
M  V30 46 1 40 2
M  V30 47 1 41 3
M  V30 48 1 42 3
M  V30 49 1 4 43 CFG=3
M  V30 50 1 44 5
M  V30 51 1 45 6
M  V30 52 1 46 6
M  V30 53 1 47 7
M  V30 54 1 48 7
M  V30 55 1 8 49 CFG=3
M  V30 56 1 10 50 CFG=1
M  V30 57 1 51 11
M  V30 58 1 52 11
M  V30 59 1 53 11
M  V30 60 1 12 54 CFG=1
M  V30 61 1 14 55 CFG=3
M  V30 62 1 16 56 CFG=3
M  V30 63 1 17 57 CFG=1
M  V30 64 1 58 19
M  V30 65 1 59 19
M  V30 66 1 20 60 CFG=3
M  V30 67 1 61 22
M  V30 68 1 62 22
M  V30 69 1 24 63 CFG=1
M  V30 70 1 64 25
M  V30 71 1 65 25
M  V30 72 1 28 66 CFG=1
M  V30 73 1 29 67 CFG=3
M  V30 74 1 30 68 CFG=3
M  V30 75 1 69 32
M  V30 76 1 70 34
M  V30 77 1 71 34
M  V30 78 1 36 72 CFG=3
M  V30 79 1 37 73 CFG=1
M  V30 END BOND
M  V30 END CTAB
M  END
>  <i_epik_Tot_Q>  (1) 
0

>  <i_epik_Tot_abs_Q>  (1) 
0

>  <i_i_glide_confnum>  (1) 
6

>  <i_i_glide_lignum>  (1) 
120

>  <i_i_glide_posenum>  (1) 
361

>  <i_i_glide_rotatable_bonds>  (1) 
10

>  <i_lp_mmshare_version>  (1) 
72125

>  <i_m_source_file_index>  (1) 
74

>  <i_f3d_flags>  (1) 
0

>  <num_sample>  (1) 
100

>  <b_lp_Chiralities_Consistent>  (1) 
1

>  <r_epik_Charging_Adjusted_Penalty>  (1) 
0

>  <r_epik_Ionization_Penalty>  (1) 
7.8331544483768561e-07

>  <r_epik_Ionization_Penalty_Charging>  (1) 
0

>  <r_epik_Ionization_Penalty_Neutral>  (1) 
7.8331544483768561e-07

>  <r_epik_State_Penalty>  (1) 
-0

>  <r_glide_ring_energy>  (1) 
0

>  <r_i_docking_score>  (1) 
-4.0756063130222513

>  <r_i_glide_ecoul>  (1) 
-5.6145514247008865

>  <r_i_glide_eff_state_penalty>  (1) 
-0

>  <r_i_glide_einternal>  (1) 
8.4231499451853704

>  <r_i_glide_emodel>  (1) 
-27.798039224248768

>  <r_i_glide_emodel_strain>  (1) 
1.5642666378026036

>  <r_i_glide_energy>  (1) 
-32.581321423970735

>  <r_i_glide_erotb>  (1) 
0.42742290402324423

>  <r_i_glide_esite>  (1) 
0

>  <r_i_glide_evdw>  (1) 
-26.966769999269847

>  <r_i_glide_gscore>  (1) 
-4.0756063130222513

>  <r_i_glide_gscore_strain>  (1) 
0

>  <r_i_glide_hbond>  (1) 
-0.16

>  <r_i_glide_ligand_efficiency>  (1) 
-0.11015152197357436

>  <r_i_glide_ligand_efficiency_ln>  (1) 
-0.88390346352642235

>  <r_i_glide_ligand_efficiency_sa>  (1) 
-0.36704930851240392

>  <r_i_glide_lipo>  (1) 
-2.3457115130150217

>  <r_i_glide_metal>  (1) 
-0

>  <r_i_glide_rewards>  (1) 
0.19320350963815203

>  <r_lp_Energy>  (1) 
61.599440999999999

>  <r_lp_tautomer_probability>  (1) 
1

>  <s_epik_cmdline>  (1) 
J2VwaWtfcHl0aG9uJywgJy1waHQnLCAnMS4wJywgJy1waCcsICc3LjQnLCAnLXRuJywgJzgnLCAnLW1hJywgJzUwMCcsICctaW1hZScsICc8aW5maWxlLm1hZT4nLCAnLW9tYWUnLCAnPG91dGZpbGUubWFlPic=

>  <s_epik_input>  (1) 
QzEyM1tDQEhdNFtDQEBIXTNbQ0gyXVtDQEhdNVtDQEhdKFtDQEhdNVtDSDJdNClbQ0gyXVtDQEhdMVtDQEhdKFtPSF0pW0NASF0oW0NIMl0yKVtDQEBIXShbT0hdKVtDQEhdKFtPSF0pW0NIMl1bQ0gyXVtDQEhdNltDSDJdW0NAQEhdNltDQF03KEYpW0NAQEhdKEYpW0NIMl1bQ0BdKEYpKFtDSDNdKVtDQEBIXShPNylDKEYpKEYpRg==

>  <s_glide_docking_method>  (1) 
confgen

>  <s_i_glide_gridfile>  (1) 
gpcr_drd2_6luq_protein_autoprepared_prepared

>  <s_lp_Force_Field>  (1) 
S-OPLS

>  <s_lp_Variant>  (1) 
DiffSBDD_73-1

>  <s_m_source_file>  (1) 
generated_generic_title2_ligand_DiffSBDD_2026-06-23_prepared.sdf

>  <GenAI_Model>  (1) 
DiffSBDD

>  <Protein>  (1) 
generic_title2

$$$$
DiffSBDD_90
     RDKit          3D

  0  0  0  0  0  0  0  0  0  0999 V3000
M  V30 BEGIN CTAB
M  V30 COUNTS 80 84 0 0 1
M  V30 BEGIN ATOM
M  V30 1 C 7.819578 4.978457 -16.690404 0
M  V30 2 C 8.529480 3.975969 -15.781500 0 CFG=1
M  V30 3 C 8.132157 4.488379 -12.171262 0
M  V30 4 C 12.783932 4.463861 -18.962545 0 CFG=2
M  V30 5 C 6.751840 4.150932 -13.833425 0
M  V30 6 C 8.512397 4.736039 -10.788928 0 CFG=2
M  V30 7 C 9.462263 2.366929 -18.827789 0 CFG=2
M  V30 8 O 9.161199 5.129471 -18.520899 0 CHG=-1
M  V30 9 C 8.087890 4.509601 -18.128299 0 CFG=1
M  V30 10 C 12.213672 6.447382 -17.342102 0
M  V30 11 O 16.570454 4.390224 -16.589538 0
M  V30 12 C 8.029588 4.138806 -14.365654 0
M  V30 13 C 7.181601 1.672445 -16.351661 0 CFG=2
M  V30 14 O 14.749878 3.102046 -16.878177 0 CHG=-1
M  V30 15 O 12.825544 5.319980 -19.947169 0 CHG=-1
M  V30 16 C 10.983549 2.671775 -18.451387 0 CFG=2
M  V30 17 N 11.412603 3.936178 -19.117050 0 CHG=1
M  V30 18 N 8.403018 3.057450 -18.004425 0 CFG=2 CHG=1
M  V30 19 C 16.360428 6.838549 -18.082307 0
M  V30 20 C 12.000842 1.534575 -18.800042 0
M  V30 21 O 6.622225 1.495562 -15.069294 0
M  V30 22 O 12.866576 1.264221 -17.710790 0
M  V30 23 O 8.576394 -0.966907 -17.303898 0
M  V30 24 C 8.619509 1.215932 -16.277738 0 CFG=1
M  V30 25 C 15.375467 4.189089 -16.912880 0
M  V30 26 C 9.036616 0.879427 -18.776626 0
M  V30 27 N 6.901725 4.366325 -12.496050 0
M  V30 28 O 17.085524 6.056791 -18.701895 0
M  V30 29 C 6.987785 4.690873 -10.266852 0
M  V30 30 N 8.867416 4.353954 -13.278415 0 CHG=1
M  V30 31 C 13.051861 5.170009 -17.593566 0 CFG=2
M  V30 32 O 10.175405 5.629250 -8.561699 0
M  V30 33 O 9.144062 5.994094 -10.606049 0
M  V30 34 C 9.279826 6.403482 -9.277064 0
M  V30 35 C 16.858441 8.244135 -17.754122 0
M  V30 36 C 14.567199 5.419559 -17.400849 0
M  V30 37 C 9.198417 0.299597 -17.359412 0 CFG=2
M  V30 38 C 10.438351 6.164649 -7.273134 0
M  V30 39 N 15.065744 6.592735 -17.633479 0
M  V30 40 C 5.944645 4.478458 -11.454360 0
M  V30 41 C 8.309320 2.679637 -16.571340 0 CFG=1
M  V30 42 H 6.743676 4.949809 -16.512338 0
M  V30 43 H 8.146662 5.990245 -16.488556 0
M  V30 44 H 9.597904 4.198568 -15.801492 0
M  V30 45 H 13.463004 3.618457 -19.008338 0
M  V30 46 H 5.785547 4.030186 -14.296756 0
M  V30 47 H 9.126241 3.906188 -10.443209 0
M  V30 48 H 9.310046 2.683088 -19.861263 0
M  V30 49 H 7.153121 4.575566 -18.686388 0
M  V30 50 H 12.444479 6.885217 -16.370648 0
M  V30 51 H 12.395945 7.212424 -18.097981 0
M  V30 52 H 11.148931 6.232126 -17.345104 0
M  V30 53 H 6.550721 1.324519 -17.168264 0
M  V30 54 H 11.026540 2.840823 -17.374647 0
M  V30 55 H 11.323778 3.832310 -20.114222 0
M  V30 56 H 12.572651 1.742787 -19.705217 0
M  V30 57 H 11.541143 0.576995 -19.009447 0
M  V30 58 H 6.421591 0.577463 -14.946023 0
M  V30 59 H 13.480068 1.984328 -17.547198 0
M  V30 60 H 8.726204 -1.373192 -16.459996 0
M  V30 61 H 8.975408 0.999861 -15.275268 0
M  V30 62 H 7.990378 0.801703 -19.077853 0
M  V30 63 H 9.554658 0.271111 -19.517274 0
M  V30 64 H 6.875448 3.895389 -9.535151 0
M  V30 65 H 6.692823 5.590241 -9.740916 0
M  V30 66 H 12.736828 4.484110 -16.806694 0
M  V30 67 H 9.626519 7.437626 -9.311133 0
M  V30 68 H 8.339003 6.390230 -8.732586 0
M  V30 69 H 17.317892 8.691880 -18.635197 0
M  V30 70 H 16.046807 8.898351 -17.432283 0
M  V30 71 H 17.610814 8.201677 -16.966412 0
M  V30 72 H 10.261737 0.153746 -17.183880 0
M  V30 73 H 11.222697 5.590254 -6.783133 0
M  V30 74 H 10.784800 7.197442 -7.330920 0
M  V30 75 H 9.546782 6.130434 -6.645957 0
M  V30 76 H 5.302034 5.341695 -11.634995 0
M  V30 77 H 5.375423 3.559088 -11.367342 0
M  V30 78 H 9.881520 4.410139 -13.314509 0
M  V30 79 H 10.714044 4.651566 -18.856492 0
M  V30 80 H 7.563583 2.654355 -18.393100 0
M  V30 END ATOM
M  V30 BEGIN BOND
M  V30 1 1 2 1
M  V30 2 1 6 3
M  V30 3 1 9 1
M  V30 4 1 9 8
M  V30 5 1 12 2
M  V30 6 2 12 5
M  V30 7 1 15 4
M  V30 8 1 16 7
M  V30 9 1 17 4
M  V30 10 1 17 16
M  V30 11 1 18 7
M  V30 12 1 18 9
M  V30 13 1 20 16
M  V30 14 1 21 13
M  V30 15 1 22 20
M  V30 16 1 24 13
M  V30 17 2 25 11
M  V30 18 1 25 14
M  V30 19 1 26 7
M  V30 20 1 27 3
M  V30 21 1 27 5
M  V30 22 2 28 19
M  V30 23 1 29 6
M  V30 24 2 30 3
M  V30 25 1 30 12
M  V30 26 1 31 4
M  V30 27 1 31 10
M  V30 28 1 33 6
M  V30 29 1 34 32
M  V30 30 1 34 33
M  V30 31 1 35 19
M  V30 32 1 36 25
M  V30 33 1 36 31
M  V30 34 1 37 23
M  V30 35 1 37 24
M  V30 36 1 37 26
M  V30 37 1 38 32
M  V30 38 1 39 19
M  V30 39 2 39 36
M  V30 40 1 40 27
M  V30 41 1 40 29
M  V30 42 1 41 2 CFG=1
M  V30 43 1 41 13
M  V30 44 1 41 18
M  V30 45 1 41 24
M  V30 46 1 42 1
M  V30 47 1 43 1
M  V30 48 1 2 44 CFG=1
M  V30 49 1 4 45 CFG=3
M  V30 50 1 46 5
M  V30 51 1 6 47 CFG=1
M  V30 52 1 7 48 CFG=3
M  V30 53 1 9 49 CFG=3
M  V30 54 1 50 10
M  V30 55 1 51 10
M  V30 56 1 52 10
M  V30 57 1 13 53 CFG=3
M  V30 58 1 16 54 CFG=1
M  V30 59 1 55 17
M  V30 60 1 56 20
M  V30 61 1 57 20
M  V30 62 1 58 21
M  V30 63 1 59 22
M  V30 64 1 60 23
M  V30 65 1 24 61 CFG=1
M  V30 66 1 62 26
M  V30 67 1 63 26
M  V30 68 1 64 29
M  V30 69 1 65 29
M  V30 70 1 31 66 CFG=1
M  V30 71 1 67 34
M  V30 72 1 68 34
M  V30 73 1 69 35
M  V30 74 1 70 35
M  V30 75 1 71 35
M  V30 76 1 37 72 CFG=1
M  V30 77 1 73 38
M  V30 78 1 74 38
M  V30 79 1 75 38
M  V30 80 1 76 40
M  V30 81 1 77 40
M  V30 82 1 78 30
M  V30 83 1 79 17
M  V30 84 1 18 80 CFG=3
M  V30 END BOND
M  V30 END CTAB
M  END
>  <i_epik_Tot_Q>  (1) 
0

>  <i_epik_Tot_abs_Q>  (1) 
6

>  <i_i_glide_confnum>  (1) 
676

>  <i_i_glide_lignum>  (1) 
169

>  <i_i_glide_posenum>  (1) 
359

>  <i_i_glide_rotatable_bonds>  (1) 
15

>  <i_lp_mmshare_version>  (1) 
72125

>  <i_m_source_file_index>  (1) 
91

>  <i_f3d_flags>  (1) 
0

>  <num_sample>  (1) 
100

>  <b_lp_Chiralities_Consistent>  (1) 
1

>  <r_epik_Charging_Adjusted_Penalty>  (1) 
0.35079833336250127

>  <r_epik_Ionization_Penalty>  (1) 
1.4702178244609605

>  <r_epik_Ionization_Penalty_Charging>  (1) 
0.099885809697688246

>  <r_epik_Ionization_Penalty_Neutral>  (1) 
1.3703320147632723

>  <r_epik_State_Penalty>  (1) 
0.25091252366481304

>  <r_glide_ring_energy>  (1) 
0

>  <r_i_docking_score>  (1) 
-4.0727033306412546

>  <r_i_glide_ecoul>  (1) 
-8.4354987211506138

>  <r_i_glide_eff_state_penalty>  (1) 
0.25091252366481304

>  <r_i_glide_einternal>  (1) 
12.95734811610952

>  <r_i_glide_emodel>  (1) 
-44.807561781983814

>  <r_i_glide_emodel_strain>  (1) 
1.4466340555258057

>  <r_i_glide_energy>  (1) 
-39.374646391372771

>  <r_i_glide_erotb>  (1) 
0.57888693115673628

>  <r_i_glide_esite>  (1) 
-0.10502313013426817

>  <r_i_glide_evdw>  (1) 
-30.939147670222159

>  <r_i_glide_gscore>  (1) 
-4.3236158543060679

>  <r_i_glide_gscore_strain>  (1) 
0

>  <r_i_glide_hbond>  (1) 
-0.16

>  <r_i_glide_ligand_efficiency>  (1) 
-0.09933422757661596

>  <r_i_glide_ligand_efficiency_ln>  (1) 
-0.86403756493084793

>  <r_i_glide_ligand_efficiency_sa>  (1) 
-0.34252599608978884

>  <r_i_glide_lipo>  (1) 
-1.3651227017248797

>  <r_i_glide_metal>  (1) 
-0

>  <r_i_glide_rewards>  (1) 
-0.46007476191995617

>  <r_lp_Energy>  (1) 
80.22188899999999

>  <r_lp_tautomer_probability>  (1) 
1

>  <s_epik_Chemistry_Notes>  (1) 
This compound has an imine and may undergo hydrolysis. This compound contains an acetal/aminal-like group ( X-CH(R)-Y where X, Y are N, S, or O) that may be acid/base labile, releasing an aldehyde.

>  <s_epik_cmdline>  (1) 
J2VwaWtfcHl0aG9uJywgJy1waHQnLCAnMS4wJywgJy1waCcsICc3LjQnLCAnLXRuJywgJzgnLCAnLW1hJywgJzUwMCcsICctaW1hZScsICc8aW5maWxlLm1hZT4nLCAnLW9tYWUnLCAnPG91dGZpbGUubWFlPic=

>  <s_epik_input>  (1) 
W0NIM11PW0NIMl1PW0NASF0xW0NIMl1bQ0gyXW4oYzEyKVtjSF1jKG4yKVtDQEBIXTNbQ0gyXVtDQEBIXShbT0hdKU4oW0NAQF0zNDUpW0NASF0oW0NIMl1bQ0BIXShbT0hdKVtDQEBIXTVbQ0BIXTRbT0hdKVtDQEBIXShbQ0gyXVtPSF0pW05IXVtDQEBIXShbT0hdKVtDQEhdKFtDSDNdKUMoXEMoPU8pW09IXSk9TlxDKD1PKVtDSDNd

>  <s_glide_docking_method>  (1) 
confgen

>  <s_i_glide_gridfile>  (1) 
gpcr_drd2_6luq_protein_autoprepared_prepared

>  <s_lp_Force_Field>  (1) 
S-OPLS

>  <s_lp_Variant>  (1) 
DiffSBDD_90-4

>  <s_m_source_file>  (1) 
generated_generic_title2_ligand_DiffSBDD_2026-06-23_prepared.sdf

>  <GenAI_Model>  (1) 
DiffSBDD

>  <Protein>  (1) 
generic_title2

$$$$
DiffSBDD_18
     RDKit          3D

  0  0  0  0  0  0  0  0  0  0999 V3000
M  V30 BEGIN CTAB
M  V30 COUNTS 38 39 0 0 1
M  V30 BEGIN ATOM
M  V30 1 C 11.375410 6.780175 -4.239722 0
M  V30 2 C 11.780830 6.707014 -2.892816 0
M  V30 3 O 11.025243 9.190208 -6.960045 0
M  V30 4 S 8.975408 5.491273 -8.416520 0
M  V30 5 C 5.775420 7.140305 -13.691995 0
M  V30 6 C 8.762322 5.478670 -10.205918 0
M  V30 7 N 7.631808 4.790231 -10.587110 0
M  V30 8 C 5.587353 5.620715 -13.712186 0
M  V30 9 C 10.960498 8.123769 -6.354728 0
M  V30 10 C 6.175411 3.546935 -12.172240 0 CFG=1
M  V30 11 C 11.786028 9.190233 -4.223790 0
M  V30 12 C 7.232305 4.602703 -11.935723 0 CFG=1
M  V30 13 N 10.532040 6.981635 -6.907350 0
M  V30 14 C 11.375413 8.028064 -4.912525 0
M  V30 15 C 12.187975 9.108437 -2.878839 0
M  V30 16 C 12.187322 7.870324 -2.215115 0
M  V30 17 O 9.563508 6.033758 -10.957758 0
M  V30 18 C 10.101926 6.897937 -8.291455 0
M  V30 19 C 5.833533 5.004329 -12.350020 0 CFG=1
M  V30 20 O 6.428179 2.807851 -13.348572 0
M  V30 21 H 11.067760 5.881267 -4.751059 0
M  V30 22 H 11.780805 5.755592 -2.380172 0
M  V30 23 H 5.547611 7.578726 -14.663875 0
M  V30 24 H 5.119888 7.601234 -12.952779 0
M  V30 25 H 6.802432 7.403760 -13.435630 0
M  V30 26 H 7.065046 4.402125 -9.846942 0
M  V30 27 H 6.259170 5.179590 -14.449032 0
M  V30 28 H 4.575422 5.369236 -14.019528 0
M  V30 29 H 5.775409 2.981760 -11.332784 0
M  V30 30 H 11.792665 10.145351 -4.729242 0
M  V30 31 H 8.010447 4.694599 -12.693388 0
M  V30 32 H 10.499709 6.142254 -6.350063 0
M  V30 33 H 12.500896 9.995612 -2.356278 0
M  V30 34 H 12.500935 7.813633 -1.185024 0
M  V30 35 H 10.975273 6.757038 -8.928898 0
M  V30 36 H 9.576495 7.798930 -8.615562 0
M  V30 37 H 5.208682 5.431518 -11.566785 0
M  V30 38 H 7.129696 2.197235 -13.177169 0
M  V30 END ATOM
M  V30 BEGIN BOND
M  V30 1 1 2 1
M  V30 2 1 6 4
M  V30 3 1 7 6
M  V30 4 1 8 5
M  V30 5 2 9 3
M  V30 6 1 12 7
M  V30 7 1 12 10
M  V30 8 1 13 9
M  V30 9 2 14 1
M  V30 10 1 14 9
M  V30 11 1 14 11
M  V30 12 2 15 11
M  V30 13 2 16 2
M  V30 14 1 16 15
M  V30 15 2 17 6
M  V30 16 1 18 4
M  V30 17 1 18 13
M  V30 18 1 19 8
M  V30 19 1 19 10
M  V30 20 1 19 12
M  V30 21 1 20 10
M  V30 22 1 21 1
M  V30 23 1 22 2
M  V30 24 1 23 5
M  V30 25 1 24 5
M  V30 26 1 25 5
M  V30 27 1 26 7
M  V30 28 1 27 8
M  V30 29 1 28 8
M  V30 30 1 10 29 CFG=1
M  V30 31 1 30 11
M  V30 32 1 12 31 CFG=3
M  V30 33 1 32 13
M  V30 34 1 33 15
M  V30 35 1 34 16
M  V30 36 1 35 18
M  V30 37 1 36 18
M  V30 38 1 19 37 CFG=1
M  V30 39 1 38 20
M  V30 END BOND
M  V30 END CTAB
M  END
>  <i_epik_Tot_Q>  (1) 
0

>  <i_epik_Tot_abs_Q>  (1) 
0

>  <i_i_glide_confnum>  (1) 
5

>  <i_i_glide_lignum>  (1) 
34

>  <i_i_glide_posenum>  (1) 
312

>  <i_i_glide_rotatable_bonds>  (1) 
9

>  <i_lp_mmshare_version>  (1) 
72125

>  <i_m_source_file_index>  (1) 
19

>  <i_f3d_flags>  (1) 
0

>  <num_sample>  (1) 
100

>  <b_lp_Chiralities_Consistent>  (1) 
1

>  <r_epik_Charging_Adjusted_Penalty>  (1) 
0

>  <r_epik_Ionization_Penalty>  (1) 
2.0525633642560989e-05

>  <r_epik_Ionization_Penalty_Charging>  (1) 
0

>  <r_epik_Ionization_Penalty_Neutral>  (1) 
2.0525633642560989e-05

>  <r_epik_State_Penalty>  (1) 
-0

>  <r_glide_ring_energy>  (1) 
0

>  <r_i_docking_score>  (1) 
-4.0688916499580348

>  <r_i_glide_ecoul>  (1) 
-3.6962196902102065

>  <r_i_glide_eff_state_penalty>  (1) 
-0

>  <r_i_glide_einternal>  (1) 
2.1314772572694967

>  <r_i_glide_emodel>  (1) 
-51.029535557157274

>  <r_i_glide_emodel_strain>  (1) 
0.12854705597028371

>  <r_i_glide_energy>  (1) 
-41.018519205320118

>  <r_i_glide_erotb>  (1) 
2.5324251451788915

>  <r_i_glide_esite>  (1) 
-0.11422410857809928

>  <r_i_glide_evdw>  (1) 
-37.322299515109911

>  <r_i_glide_gscore>  (1) 
-4.0688916499580348

>  <r_i_glide_gscore_strain>  (1) 
0

>  <r_i_glide_hbond>  (1) 
0

>  <r_i_glide_ligand_efficiency>  (1) 
-0.20344458249790173

>  <r_i_glide_ligand_efficiency_ln>  (1) 
-1.0183093789562063

>  <r_i_glide_ligand_efficiency_sa>  (1) 
-0.55223355873310032

>  <r_i_glide_lipo>  (1) 
-2.089554259067175

>  <r_i_glide_metal>  (1) 
-0

>  <r_i_glide_rewards>  (1) 
-1.9769904982046254

>  <r_lp_Energy>  (1) 
17.543890999999999

>  <r_lp_tautomer_probability>  (1) 
1

>  <s_epik_Chemistry_Notes>  (1) 
This compound contains an acetal/aminal-like group ( X-CH(R)-Y where X, Y are N, S, or O) that may be acid/base labile, releasing an aldehyde.

>  <s_epik_cmdline>  (1) 
J2VwaWtfcHl0aG9uJywgJy1waHQnLCAnMS4wJywgJy1waCcsICc3LjQnLCAnLXRuJywgJzgnLCAnLW1hJywgJzUwMCcsICctaW1hZScsICc8aW5maWxlLm1hZT4nLCAnLW9tYWUnLCAnPG91dGZpbGUubWFlPic=

>  <s_epik_input>  (1) 
W2NIXTFbY0hdW2NIXVtjSF1bY0hdYzFDKD1PKVtOSF1bQ0gyXVNDKD1PKVtOSF1bQ0BASF0oW0NIXTJbT0hdKVtDQEhdMltDSDJdW0NIM10=

>  <s_glide_docking_method>  (1) 
confgen

>  <s_i_glide_gridfile>  (1) 
gpcr_drd2_6luq_protein_autoprepared_prepared

>  <s_lp_Force_Field>  (1) 
S-OPLS

>  <s_lp_Variant>  (1) 
DiffSBDD_18-1

>  <s_m_source_file>  (1) 
generated_generic_title2_ligand_DiffSBDD_2026-06-23_prepared.sdf

>  <GenAI_Model>  (1) 
DiffSBDD

>  <Protein>  (1) 
generic_title2

$$$$
DiffSBDD_3
     RDKit          3D

  0  0  0  0  0  0  0  0  0  0999 V3000
M  V30 BEGIN CTAB
M  V30 COUNTS 88 96 0 0 1
M  V30 BEGIN ATOM
M  V30 1 C 6.658493 1.877083 -20.907141 0
M  V30 2 O 6.443012 -0.197890 -16.890133 0
M  V30 3 C 10.527107 7.565912 -10.040081 0
M  V30 4 C 6.183056 5.642577 -14.495636 0
M  V30 5 C 5.504675 6.665890 -21.061961 0
M  V30 6 C 6.877111 1.289340 -14.910757 0 CFG=2
M  V30 7 C 5.299167 7.608122 -19.918379 0
M  V30 8 C 9.031926 6.892189 -12.121231 0 CFG=2
M  V30 9 O 6.029921 0.390277 -14.220391 0
M  V30 10 C 10.325565 6.145409 -12.170553 0
M  V30 11 C 6.088832 3.176298 -13.363948 0 CFG=2
M  V30 12 C 7.692677 3.967666 -21.767093 0
M  V30 13 C 5.083112 -0.035773 -17.226809 0
M  V30 14 C 8.377340 5.878917 -20.238156 0
M  V30 15 C 7.076235 0.979674 -16.406265 0 CFG=2
M  V30 16 C 7.821082 5.488621 -21.627648 0 CFG=2
M  V30 17 C 9.154384 5.352108 -9.962306 0 CFG=2
M  V30 18 C 6.768480 3.400795 -20.665494 0 CFG=1
M  V30 19 C 7.690958 1.845056 -17.507864 0
M  V30 20 C 4.741521 7.929770 -21.310506 0
M  V30 21 C 8.041120 0.473804 -15.380691 0
M  V30 22 C 7.552020 4.846117 -11.902801 0 CFG=2
M  V30 23 C 5.561558 4.570647 -13.604102 0 CFG=1
M  V30 24 C 5.191613 5.324142 -21.575644 0 CFG=2
M  V30 25 C 7.667617 5.186002 -19.056864 0
M  V30 26 C 9.195119 5.544044 -8.432968 0
M  V30 27 C 6.212431 4.237009 -12.277511 0 CFG=1
M  V30 28 C 5.337964 4.041927 -20.746678 0
M  V30 29 C 9.728113 6.516610 -10.814230 0 CFG=1
M  V30 30 C 7.471428 3.675276 -19.295268 0 CFG=1
M  V30 31 C 6.818265 2.981815 -18.068498 0
M  V30 32 F 9.775406 8.327228 -9.248231 0
M  V30 33 C 6.498012 6.130717 -22.003202 0 CFG=1
M  V30 34 C 7.245833 2.557189 -14.134935 0
M  V30 35 C 7.584615 6.122980 -14.068277 0
M  V30 36 C 7.726663 4.941546 -10.383235 0
M  V30 37 C 7.723353 6.235979 -12.539568 0 CFG=2
M  V30 38 H 6.285804 1.661628 -21.909350 0
M  V30 39 H 7.626629 1.384568 -20.810791 0
M  V30 40 H 5.975489 1.393051 -20.210370 0
M  V30 41 H 11.304426 7.101512 -9.434718 0
M  V30 42 H 11.019090 8.249601 -10.731087 0
M  V30 43 H 6.190716 5.297339 -15.529165 0
M  V30 44 H 5.512600 6.502252 -14.470232 0
M  V30 45 H 4.590117 7.320307 -19.144814 0
M  V30 46 H 6.164318 8.173654 -19.585005 0
M  V30 47 H 9.085012 7.944973 -12.393505 0
M  V30 48 H 5.918377 -0.382555 -14.757732 0
M  V30 49 H 10.311119 5.099291 -12.462108 0
M  V30 50 H 11.196961 6.694986 -12.519483 0
M  V30 51 H 5.375251 2.423108 -13.075941 0
M  V30 52 H 7.304431 3.720863 -22.756913 0
M  V30 53 H 8.681026 3.508513 -21.711488 0
M  V30 54 H 4.642434 -1.005019 -17.459587 0
M  V30 55 H 4.538278 0.390173 -16.385041 0
M  V30 56 H 4.975416 0.598135 -18.104091 0
M  V30 57 H 8.356995 6.961289 -20.108405 0
M  V30 58 H 9.431641 5.599253 -20.207023 0
M  V30 59 H 8.544190 5.833974 -22.368069 0
M  V30 60 H 9.775415 4.482972 -10.172052 0
M  V30 61 H 8.612199 2.292678 -17.132900 0
M  V30 62 H 7.995290 1.178244 -18.315026 0
M  V30 63 H 5.238293 8.711996 -21.880620 0
M  V30 64 H 3.669244 7.855612 -21.461919 0
M  V30 65 H 8.975409 0.995741 -15.314603 0
M  V30 66 H 8.078294 -0.593583 -15.165699 0
M  V30 67 H 8.325050 4.177827 -12.275443 0
M  V30 68 H 4.477747 4.626481 -13.587461 0
M  V30 69 H 4.377330 5.286207 -22.296723 0
M  V30 70 H 6.706229 5.651040 -18.855173 0
M  V30 71 H 8.257447 5.341496 -18.152825 0
M  V30 72 H 8.582629 6.390447 -8.119938 0
M  V30 73 H 8.799958 4.662289 -7.929100 0
M  V30 74 H 10.207394 5.689401 -8.057508 0
M  V30 75 H 5.516076 4.153909 -11.444275 0
M  V30 76 H 4.652266 3.319804 -21.189217 0
M  V30 77 H 4.934570 4.228234 -19.751858 0
M  V30 78 H 8.482183 3.272284 -19.380170 0
M  V30 79 H 5.825959 2.617789 -18.323569 0
M  V30 80 H 6.670722 3.713370 -17.276202 0
M  V30 81 H 6.482930 6.545552 -23.009995 0
M  V30 82 H 8.013268 2.278732 -13.411994 0
M  V30 83 H 7.690926 3.282383 -14.813225 0
M  V30 84 H 8.348276 5.447803 -14.454811 0
M  V30 85 H 7.775439 7.090746 -14.532830 0
M  V30 86 H 7.476370 3.990230 -9.923695 0
M  V30 87 H 6.989033 5.629357 -9.980291 0
M  V30 88 H 6.926647 6.883641 -12.167235 0
M  V30 END ATOM
M  V30 BEGIN BOND
M  V30 1 1 7 5
M  V30 2 1 6 9 CFG=1
M  V30 3 1 10 8
M  V30 4 1 13 2
M  V30 5 1 15 2 CFG=3
M  V30 6 1 15 6
M  V30 7 1 16 12
M  V30 8 1 16 14
M  V30 9 1 18 1 CFG=3
M  V30 10 1 18 12
M  V30 11 1 19 15
M  V30 12 1 20 5
M  V30 13 1 20 7
M  V30 14 1 21 6
M  V30 15 1 21 15
M  V30 16 1 23 4
M  V30 17 1 23 11
M  V30 18 1 24 5
M  V30 19 1 25 14
M  V30 20 1 26 17
M  V30 21 1 27 11
M  V30 22 1 27 22
M  V30 23 1 27 23
M  V30 24 1 28 18
M  V30 25 1 28 24
M  V30 26 1 29 3 CFG=1
M  V30 27 1 29 8
M  V30 28 1 29 10
M  V30 29 1 29 17
M  V30 30 1 30 18
M  V30 31 1 30 25
M  V30 32 1 31 19
M  V30 33 1 31 30
M  V30 34 1 32 3
M  V30 35 1 33 5
M  V30 36 1 33 16
M  V30 37 1 33 24
M  V30 38 1 34 6
M  V30 39 1 34 11
M  V30 40 1 35 4
M  V30 41 1 36 17
M  V30 42 1 36 22
M  V30 43 1 37 8
M  V30 44 1 37 22
M  V30 45 1 37 35
M  V30 46 1 38 1
M  V30 47 1 39 1
M  V30 48 1 40 1
M  V30 49 1 41 3
M  V30 50 1 42 3
M  V30 51 1 43 4
M  V30 52 1 44 4
M  V30 53 1 45 7
M  V30 54 1 46 7
M  V30 55 1 8 47 CFG=3
M  V30 56 1 48 9
M  V30 57 1 49 10
M  V30 58 1 50 10
M  V30 59 1 11 51 CFG=1
M  V30 60 1 52 12
M  V30 61 1 53 12
M  V30 62 1 54 13
M  V30 63 1 55 13
M  V30 64 1 56 13
M  V30 65 1 57 14
M  V30 66 1 58 14
M  V30 67 1 16 59 CFG=3
M  V30 68 1 17 60 CFG=1
M  V30 69 1 61 19
M  V30 70 1 62 19
M  V30 71 1 63 20
M  V30 72 1 64 20
M  V30 73 1 65 21
M  V30 74 1 66 21
M  V30 75 1 22 67 CFG=3
M  V30 76 1 23 68 CFG=1
M  V30 77 1 24 69 CFG=3
M  V30 78 1 70 25
M  V30 79 1 71 25
M  V30 80 1 72 26
M  V30 81 1 73 26
M  V30 82 1 74 26
M  V30 83 1 27 75 CFG=1
M  V30 84 1 76 28
M  V30 85 1 77 28
M  V30 86 1 30 78 CFG=3
M  V30 87 1 79 31
M  V30 88 1 80 31
M  V30 89 1 33 81 CFG=3
M  V30 90 1 82 34
M  V30 91 1 83 34
M  V30 92 1 84 35
M  V30 93 1 85 35
M  V30 94 1 86 36
M  V30 95 1 87 36
M  V30 96 1 37 88 CFG=1
M  V30 END BOND
M  V30 END CTAB
M  END
>  <i_epik_Tot_Q>  (1) 
0

>  <i_epik_Tot_abs_Q>  (1) 
0

>  <i_i_glide_confnum>  (1) 
30

>  <i_i_glide_lignum>  (1) 
7

>  <i_i_glide_posenum>  (1) 
269

>  <i_i_glide_rotatable_bonds>  (1) 
8

>  <i_lp_mmshare_version>  (1) 
72125

>  <i_m_source_file_index>  (1) 
4

>  <i_f3d_flags>  (1) 
0

>  <num_sample>  (1) 
100

>  <b_lp_Chiralities_Consistent>  (1) 
1

>  <r_epik_Charging_Adjusted_Penalty>  (1) 
0

>  <r_epik_Ionization_Penalty>  (1) 
4.4190122057335124e-08

>  <r_epik_Ionization_Penalty_Charging>  (1) 
0

>  <r_epik_Ionization_Penalty_Neutral>  (1) 
4.4190122057335124e-08

>  <r_epik_State_Penalty>  (1) 
-0

>  <r_glide_ring_energy>  (1) 
0

>  <r_i_docking_score>  (1) 
-4.0675020927360475

>  <r_i_glide_ecoul>  (1) 
1.0664550819853482

>  <r_i_glide_eff_state_penalty>  (1) 
-0

>  <r_i_glide_einternal>  (1) 
54.511250767001016

>  <r_i_glide_emodel>  (1) 
-8.8329240684246031

>  <r_i_glide_emodel_strain>  (1) 
0.65585767552241236

>  <r_i_glide_energy>  (1) 
-31.151308542560127

>  <r_i_glide_erotb>  (1) 
0.39265675438420033

>  <r_i_glide_esite>  (1) 
-0.10000000000000001

>  <r_i_glide_evdw>  (1) 
-32.217763624545476

>  <r_i_glide_gscore>  (1) 
-4.0675020927360475

>  <r_i_glide_gscore_strain>  (1) 
0

>  <r_i_glide_hbond>  (1) 
0

>  <r_i_glide_ligand_efficiency>  (1) 
-0.10993248899286615

>  <r_i_glide_ligand_efficiency_ln>  (1) 
-0.88214584813622421

>  <r_i_glide_ligand_efficiency_sa>  (1) 
-0.36631944202785688

>  <r_i_glide_lipo>  (1) 
-2.3354769232663326

>  <r_i_glide_metal>  (1) 
-0

>  <r_i_glide_rewards>  (1) 
-0.57376200492444318

>  <r_lp_Energy>  (1) 
90.289001999999996

>  <r_lp_tautomer_probability>  (1) 
1

>  <s_epik_cmdline>  (1) 
J2VwaWtfcHl0aG9uJywgJy1waHQnLCAnMS4wJywgJy1waCcsICc3LjQnLCAnLXRuJywgJzgnLCAnLW1hJywgJzUwMCcsICctaW1hZScsICc8aW5maWxlLm1hZT4nLCAnLW9tYWUnLCAnPG91dGZpbGUubWFlPic=

>  <s_epik_input>  (1) 
W0NIMl0xW0NIMl1DMTJbQ0BIXTNbQ0BASF0yW0NAQEhdNFtDSDJdW0NAXShbQ0gzXSkoW0NIMl0zKVtDQEBIXShbQ0gyXVtDSDJdNClbQ0gyXVtDSDJdW0NAXShbQ0gyXTUpKE9bQ0gzXSlbQ0BdNShbT0hdKVtDSDJdW0NAQEhdNltDQEhdKFtDSDJdW0NIMl03KVtDQEBIXTZbQ0BIXShbQ0gyXVtDQEBIXThbQ0gzXSlbQ0BIXTdbQ0BIXShbQ0gyXTkpW0NAQF04OVtDSDJdRg==

>  <s_glide_docking_method>  (1) 
confgen

>  <s_i_glide_gridfile>  (1) 
gpcr_drd2_6luq_protein_autoprepared_prepared

>  <s_lp_Force_Field>  (1) 
S-OPLS

>  <s_lp_Variant>  (1) 
DiffSBDD_3-1

>  <s_m_source_file>  (1) 
generated_generic_title2_ligand_DiffSBDD_2026-06-23_prepared.sdf

>  <GenAI_Model>  (1) 
DiffSBDD

>  <Protein>  (1) 
generic_title2

$$$$
DiffSBDD_1
     RDKit          3D

  0  0  0  0  0  0  0  0  0  0999 V3000
M  V30 BEGIN CTAB
M  V30 COUNTS 73 75 0 0 1
M  V30 BEGIN ATOM
M  V30 1 F 20.076074 6.927251 -19.041248 0
M  V30 2 C 7.076047 6.484878 -19.217166 0
M  V30 3 C 17.807947 9.500214 -17.697801 0
M  V30 4 C 19.077122 7.780428 -19.317797 0
M  V30 5 C 11.503817 5.300106 -17.719995 0 CFG=1
M  V30 6 C 15.711605 8.076483 -20.639933 0
M  V30 7 F 19.302677 10.154575 -19.428472 0
M  V30 8 C 5.260741 6.254450 -16.495868 0
M  V30 9 C 16.189422 8.240525 -19.200188 0 CFG=1
M  V30 10 C 16.387682 9.481958 -18.350609 0
M  V30 11 C 10.032040 5.729671 -17.755076 0
M  V30 12 C 15.835715 6.982734 -18.376404 0 CFG=1
M  V30 13 C 12.698031 6.976936 -14.568798 0
M  V30 14 O 9.333605 3.718340 -18.936461 0
M  V30 15 C 13.875809 6.042911 -17.194361 0
M  V30 16 C 12.384199 6.237034 -16.857749 0 CFG=2
M  V30 17 C 7.698770 5.480032 -18.571054 0
M  V30 18 C 7.002255 4.649334 -17.502520 0
M  V30 19 N 18.183793 7.435142 -20.172480 0
M  V30 20 C 12.244597 6.888793 -13.086280 0
M  V30 21 O 8.051270 7.428173 -11.985009 0
M  V30 22 O 16.778012 6.672997 -17.367093 0
M  V30 23 C 10.767879 7.006258 -12.752200 0
M  V30 24 C 19.054969 9.152823 -18.584312 0 CFG=1
M  V30 25 C 8.503949 6.086036 -12.069130 0
M  V30 26 C 9.151279 5.117008 -18.855326 0 CFG=1
M  V30 27 C 9.983362 5.966600 -12.417183 0
M  V30 28 O 14.463451 5.011653 -16.863349 0
M  V30 29 C 17.141471 8.401352 -20.385339 0 CFG=1
M  V30 30 O 11.608806 3.975913 -17.228763 0
M  V30 31 C 5.385765 7.381239 -17.520286 0
M  V30 32 N 14.463685 7.041688 -17.877221 0
M  V30 33 C 6.558198 5.465883 -16.277190 0
M  V30 34 C 5.636975 6.903554 -18.963134 0
M  V30 35 O 12.067852 6.063648 -15.469328 0
M  V30 36 H 7.614989 7.050287 -19.964287 0
M  V30 37 H 17.966431 10.483305 -17.257840 0
M  V30 38 H 17.813344 8.836975 -16.834781 0
M  V30 39 H 11.873422 5.304997 -18.746952 0
M  V30 40 H 15.499148 7.083301 -21.030772 0
M  V30 41 H 15.072271 8.865469 -21.032257 0
M  V30 42 H 4.975387 6.695449 -15.540931 0
M  V30 43 H 4.447617 5.590227 -16.785193 0
M  V30 44 H 16.244459 10.357249 -18.984259 0
M  V30 45 H 15.613053 9.541671 -17.585143 0
M  V30 46 H 9.594633 5.592661 -16.765325 0
M  V30 47 H 10.001689 6.790193 -17.984838 0
M  V30 48 H 15.870077 6.122264 -19.045999 0
M  V30 49 H 12.575572 7.990205 -14.933121 0
M  V30 50 H 13.772091 6.789880 -14.585949 0
M  V30 51 H 10.102143 3.502366 -18.418708 0
M  V30 52 H 12.135383 7.266424 -17.117962 0
M  V30 53 H 6.175415 4.132965 -17.985087 0
M  V30 54 H 7.663762 3.862675 -17.142828 0
M  V30 55 H 12.789795 7.634715 -12.517709 0
M  V30 56 H 12.575458 5.990223 -12.619727 0
M  V30 57 H 7.727128 7.589727 -11.096389 0
M  V30 58 H 17.270664 5.919239 -17.651232 0
M  V30 59 H 10.343640 7.990204 -12.785040 0
M  V30 60 H 19.924538 9.161878 -17.927823 0
M  V30 61 H 8.329699 5.601237 -11.108349 0
M  V30 62 H 7.915191 5.552117 -12.815108 0
M  V30 63 H 9.450541 5.535682 -19.817173 0
M  V30 64 H 10.404664 4.971452 -12.383929 0
M  V30 65 H 17.477649 9.367935 -20.759329 0
M  V30 66 H 11.686928 4.032190 -16.283303 0
M  V30 67 H 6.175403 8.045920 -17.185031 0
M  V30 68 H 4.469505 7.971685 -17.499367 0
M  V30 69 H 13.919379 7.860773 -18.106545 0
M  V30 70 H 7.357831 6.133800 -15.952430 0
M  V30 71 H 6.396498 4.778779 -15.446261 0
M  V30 72 H 5.410289 7.720458 -19.648712 0
M  V30 73 H 4.960817 6.088074 -19.223498 0
M  V30 END ATOM
M  V30 BEGIN BOND
M  V30 1 1 4 1
M  V30 2 1 9 6 CFG=3
M  V30 3 1 10 3
M  V30 4 1 10 9
M  V30 5 1 11 5
M  V30 6 1 12 9
M  V30 7 1 16 5
M  V30 8 1 16 15
M  V30 9 2 17 2
M  V30 10 1 18 17
M  V30 11 2 19 4
M  V30 12 1 20 13
M  V30 13 1 22 12
M  V30 14 1 23 20
M  V30 15 1 24 3
M  V30 16 1 24 4
M  V30 17 1 24 7
M  V30 18 1 25 21
M  V30 19 1 26 11
M  V30 20 1 26 14
M  V30 21 1 26 17
M  V30 22 2 27 23
M  V30 23 1 27 25
M  V30 24 2 28 15
M  V30 25 1 29 6
M  V30 26 1 29 9
M  V30 27 1 29 19
M  V30 28 1 30 5
M  V30 29 1 31 8
M  V30 30 1 32 12
M  V30 31 1 32 15
M  V30 32 1 33 8
M  V30 33 1 33 18
M  V30 34 1 34 2
M  V30 35 1 34 31
M  V30 36 1 35 13
M  V30 37 1 35 16
M  V30 38 1 36 2
M  V30 39 1 37 3
M  V30 40 1 38 3
M  V30 41 1 5 39 CFG=3
M  V30 42 1 40 6
M  V30 43 1 41 6
M  V30 44 1 42 8
M  V30 45 1 43 8
M  V30 46 1 44 10
M  V30 47 1 45 10
M  V30 48 1 46 11
M  V30 49 1 47 11
M  V30 50 1 12 48 CFG=3
M  V30 51 1 49 13
M  V30 52 1 50 13
M  V30 53 1 51 14
M  V30 54 1 16 52 CFG=3
M  V30 55 1 53 18
M  V30 56 1 54 18
M  V30 57 1 55 20
M  V30 58 1 56 20
M  V30 59 1 57 21
M  V30 60 1 58 22
M  V30 61 1 59 23
M  V30 62 1 24 60 CFG=1
M  V30 63 1 61 25
M  V30 64 1 62 25
M  V30 65 1 26 63 CFG=3
M  V30 66 1 64 27
M  V30 67 1 29 65 CFG=3
M  V30 68 1 66 30
M  V30 69 1 67 31
M  V30 70 1 68 31
M  V30 71 1 69 32
M  V30 72 1 70 33
M  V30 73 1 71 33
M  V30 74 1 72 34
M  V30 75 1 73 34
M  V30 END BOND
M  V30 END CTAB
M  END
>  <i_epik_Tot_Q>  (1) 
0

>  <i_epik_Tot_abs_Q>  (1) 
0

>  <i_i_glide_confnum>  (1) 
3264

>  <i_i_glide_lignum>  (1) 
3

>  <i_i_glide_posenum>  (1) 
141

>  <i_i_glide_rotatable_bonds>  (1) 
17

>  <i_lp_mmshare_version>  (1) 
72125

>  <i_m_source_file_index>  (1) 
2

>  <i_f3d_flags>  (1) 
0

>  <num_sample>  (1) 
100

>  <b_lp_Chiralities_Consistent>  (1) 
1

>  <r_epik_Charging_Adjusted_Penalty>  (1) 
0

>  <r_epik_Ionization_Penalty>  (1) 
3.3646854675809213e-05

>  <r_epik_Ionization_Penalty_Charging>  (1) 
0

>  <r_epik_Ionization_Penalty_Neutral>  (1) 
3.3646854675809213e-05

>  <r_epik_State_Penalty>  (1) 
-0

>  <r_glide_ring_energy>  (1) 
0.00077298911874713633

>  <r_i_docking_score>  (1) 
-4.0665090890967583

>  <r_i_glide_ecoul>  (1) 
-4.2791852019556575

>  <r_i_glide_eff_state_penalty>  (1) 
-0

>  <r_i_glide_einternal>  (1) 
10.408892843794671

>  <r_i_glide_emodel>  (1) 
-28.575479248823854

>  <r_i_glide_emodel_strain>  (1) 
2.9827459339303459

>  <r_i_glide_energy>  (1) 
-26.962611024726726

>  <r_i_glide_erotb>  (1) 
0.89639897310018468

>  <r_i_glide_esite>  (1) 
0

>  <r_i_glide_evdw>  (1) 
-22.683425822771071

>  <r_i_glide_gscore>  (1) 
-4.0665090890967583

>  <r_i_glide_gscore_strain>  (1) 
0

>  <r_i_glide_hbond>  (1) 
-0.16

>  <r_i_glide_ligand_efficiency>  (1) 
-0.1161859739741931

>  <r_i_glide_ligand_efficiency_ln>  (1) 
-0.8926889963633593

>  <r_i_glide_ligand_efficiency_sa>  (1) 
-0.3800520251834314

>  <r_i_glide_lipo>  (1) 
-2.2937611194977756

>  <r_i_glide_metal>  (1) 
-0

>  <r_i_glide_rewards>  (1) 
-0.73309787126726489

>  <r_lp_Energy>  (1) 
36.910070999999995

>  <r_lp_tautomer_probability>  (1) 
1

>  <s_epik_Chemistry_Notes>  (1) 
This compound has an imine and may undergo hydrolysis. This compound contains an acetal/aminal-like group ( X-CH(R)-Y where X, Y are N, S, or O) that may be acid/base labile, releasing an aldehyde.

>  <s_epik_cmdline>  (1) 
J2VwaWtfcHl0aG9uJywgJy1waHQnLCAnMS4wJywgJy1waCcsICc3LjQnLCAnLXRuJywgJzgnLCAnLW1hJywgJzUwMCcsICctaW1hZScsICc8aW5maWxlLm1hZT4nLCAnLW9tYWUnLCAnPG91dGZpbGUubWFlPic=

>  <s_epik_input>  (1) 
W0NIMl0xW0NIMl1bQ0BIXShGKUMoRik9TltDQEBIXShbQ0gyXTIpQzEyW0NAQEhdKFtPSF0pW05IXUMoPU8pW0NASF0oT1tDSDJdW0NIMl0vW0NIXT1bQ0hdL1tDSDJdW09IXSlbQ0BASF0oW09IXSlbQ0gyXVtDQEBIXShbT0hdKUMzPVtDSF1bQ0gyXVtDSDJdW0NIMl1bQ0gyXVtDSDJdMw==

>  <s_glide_docking_method>  (1) 
confgen

>  <s_i_glide_gridfile>  (1) 
gpcr_drd2_6luq_protein_autoprepared_prepared

>  <s_lp_Force_Field>  (1) 
S-OPLS

>  <s_lp_Variant>  (1) 
DiffSBDD_1-2

>  <s_m_source_file>  (1) 
generated_generic_title2_ligand_DiffSBDD_2026-06-23_prepared.sdf

>  <GenAI_Model>  (1) 
DiffSBDD

>  <Protein>  (1) 
generic_title2

$$$$
DiffSBDD_17
     RDKit          3D

  0  0  0  0  0  0  0  0  0  0999 V3000
M  V30 BEGIN CTAB
M  V30 COUNTS 42 43 0 0 1
M  V30 BEGIN ATOM
M  V30 1 Cl 6.041665 5.710738 -12.687285 0
M  V30 2 C 8.702004 5.770008 -12.121274 0
M  V30 3 C 7.683592 5.108499 -13.061721 0 CFG=2
M  V30 4 C 11.968605 8.625712 -3.730876 0
M  V30 5 C 7.314296 3.063262 -14.386749 0
M  V30 6 O 8.480069 5.379991 -10.765144 0
M  V30 7 C 9.682077 6.269699 -7.379980 0
M  V30 8 Cl 12.080145 8.790244 -9.417883 0
M  V30 9 C 7.786467 4.120268 -16.720269 0
M  V30 10 O 10.598700 8.782513 -5.786186 0
M  V30 11 O 12.172814 8.793750 -1.483300 0
M  V30 12 C 9.202252 5.995979 -9.759756 0
M  V30 13 O 7.404003 4.934149 -17.589300 0
M  V30 14 C 11.415538 7.909801 -6.547818 0
M  V30 15 C 10.172841 6.981719 -10.058701 0
M  V30 16 C 10.893873 7.603956 -9.025918 0
M  V30 17 C 7.227037 4.307998 -15.300064 0 CFG=2
M  V30 18 C 8.961386 5.645441 -8.418017 0
M  V30 19 C 7.963372 5.416273 -14.538242 0
M  V30 20 O 8.580146 3.170941 -16.906907 0 CHG=-1
M  V30 21 C 11.300417 9.528159 -4.791508 0
M  V30 22 C 7.686774 3.574733 -12.985241 0
M  V30 23 C 10.647292 7.248792 -7.677350 0
M  V30 24 N 12.175517 9.458697 -2.497256 0
M  V30 25 H 8.623653 6.852708 -12.242460 0
M  V30 26 H 9.708826 5.466550 -12.416034 0
M  V30 27 H 11.375411 7.748138 -3.463212 0
M  V30 28 H 12.950353 8.295969 -4.061486 0
M  V30 29 H 8.059020 2.329753 -14.702237 0
M  V30 30 H 6.353257 2.548114 -14.371015 0
M  V30 31 H 9.491473 5.998304 -6.353204 0
M  V30 32 H 11.766852 7.111062 -5.897708 0
M  V30 33 H 12.296669 8.439367 -6.898086 0
M  V30 34 H 10.373806 7.257550 -11.079075 0
M  V30 35 H 6.180541 4.601209 -15.372889 0
M  V30 36 H 8.214526 4.903014 -8.183294 0
M  V30 37 H 7.626605 6.413659 -14.825177 0
M  V30 38 H 9.034490 5.377656 -14.741070 0
M  V30 39 H 12.033993 10.196555 -5.251346 0
M  V30 40 H 10.579666 10.188641 -4.309380 0
M  V30 41 H 8.687941 3.220368 -12.725726 0
M  V30 42 H 6.998301 3.208423 -12.218947 0
M  V30 END ATOM
M  V30 BEGIN BOND
M  V30 1 1 3 1 CFG=1
M  V30 2 1 3 2
M  V30 3 1 6 2
M  V30 4 1 12 6
M  V30 5 2 13 9
M  V30 6 1 14 10
M  V30 7 2 15 12
M  V30 8 1 16 8
M  V30 9 1 16 15
M  V30 10 1 17 5
M  V30 11 1 17 9
M  V30 12 2 18 7
M  V30 13 1 18 12
M  V30 14 1 19 3
M  V30 15 1 19 17
M  V30 16 1 20 9
M  V30 17 1 21 4
M  V30 18 1 21 10
M  V30 19 1 22 3
M  V30 20 1 22 5
M  V30 21 1 23 7
M  V30 22 1 23 14
M  V30 23 2 23 16
M  V30 24 1 24 4
M  V30 25 2 24 11
M  V30 26 1 25 2
M  V30 27 1 26 2
M  V30 28 1 27 4
M  V30 29 1 28 4
M  V30 30 1 29 5
M  V30 31 1 30 5
M  V30 32 1 31 7
M  V30 33 1 32 14
M  V30 34 1 33 14
M  V30 35 1 34 15
M  V30 36 1 17 35 CFG=3
M  V30 37 1 36 18
M  V30 38 1 37 19
M  V30 39 1 38 19
M  V30 40 1 39 21
M  V30 41 1 40 21
M  V30 42 1 41 22
M  V30 43 1 42 22
M  V30 END BOND
M  V30 END CTAB
M  END
>  <i_epik_Tot_Q>  (1) 
-1

>  <i_epik_Tot_abs_Q>  (1) 
1

>  <i_i_glide_confnum>  (1) 
371

>  <i_i_glide_lignum>  (1) 
32

>  <i_i_glide_posenum>  (1) 
162

>  <i_i_glide_rotatable_bonds>  (1) 
9

>  <i_lp_mmshare_version>  (1) 
72125

>  <i_m_source_file_index>  (1) 
18

>  <i_f3d_flags>  (1) 
0

>  <num_sample>  (1) 
100

>  <b_lp_Chiralities_Consistent>  (1) 
1

>  <r_epik_Charging_Adjusted_Penalty>  (1) 
0.00012381605781317179

>  <r_epik_Ionization_Penalty>  (1) 
0.00012381605830283167

>  <r_epik_Ionization_Penalty_Charging>  (1) 
0.00012381605781317179

>  <r_epik_Ionization_Penalty_Neutral>  (1) 
4.8965987375008979e-13

>  <r_epik_State_Penalty>  (1) 
-0

>  <r_glide_ring_energy>  (1) 
0

>  <r_i_docking_score>  (1) 
-4.0603104335381852

>  <r_i_glide_ecoul>  (1) 
1.9590706059809784

>  <r_i_glide_eff_state_penalty>  (1) 
-0

>  <r_i_glide_einternal>  (1) 
9.0267479423276136

>  <r_i_glide_emodel>  (1) 
-35.091411735023442

>  <r_i_glide_emodel_strain>  (1) 
2.3919868877843982

>  <r_i_glide_energy>  (1) 
-33.992641272315701

>  <r_i_glide_erotb>  (1) 
0.96174401237487195

>  <r_i_glide_esite>  (1) 
0

>  <r_i_glide_evdw>  (1) 
-35.951711878296678

>  <r_i_glide_gscore>  (1) 
-4.0603104335381852

>  <r_i_glide_gscore_strain>  (1) 
0

>  <r_i_glide_hbond>  (1) 
0

>  <r_i_glide_ligand_efficiency>  (1) 
-0.16917960139742438

>  <r_i_glide_ligand_efficiency_ln>  (1) 
-0.97181860225100203

>  <r_i_glide_ligand_efficiency_sa>  (1) 
-0.48799841484042789

>  <r_i_glide_lipo>  (1) 
-1.8516912754135229

>  <r_i_glide_metal>  (1) 
-0

>  <r_i_glide_rewards>  (1) 
-1.6666381674818478

>  <r_lp_Energy>  (1) 
24.982256

>  <r_lp_tautomer_probability>  (1) 
1

>  <s_epik_cmdline>  (1) 
J2VwaWtfcHl0aG9uJywgJy1waHQnLCAnMS4wJywgJy1waCcsICc3LjQnLCAnLXRuJywgJzgnLCAnLW1hJywgJzUwMCcsICctaW1hZScsICc8aW5maWxlLm1hZT4nLCAnLW9tYWUnLCAnPG91dGZpbGUubWFlPic=

>  <s_epik_input>  (1) 
Tz1DKFtPSF0pW0NAQEhdKFtDSDJdW0NIMl0xKVtDSDJdW0NAXTEoQ2wpW0NIMl1PYzJbY0hdYyhDbCljKFtjSF1bY0hdMilbQ0gyXU9bQ0gyXVtDSDJdTj1P

>  <s_glide_docking_method>  (1) 
confgen

>  <s_i_glide_gridfile>  (1) 
gpcr_drd2_6luq_protein_autoprepared_prepared

>  <s_lp_Force_Field>  (1) 
S-OPLS

>  <s_lp_Variant>  (1) 
DiffSBDD_17-1

>  <s_m_source_file>  (1) 
generated_generic_title2_ligand_DiffSBDD_2026-06-23_prepared.sdf

>  <GenAI_Model>  (1) 
DiffSBDD

>  <Protein>  (1) 
generic_title2

$$$$
DiffSBDD_15
     RDKit          3D

  0  0  0  0  0  0  0  0  0  0999 V3000
M  V30 BEGIN CTAB
M  V30 COUNTS 79 80 0 0 1
M  V30 BEGIN ATOM
M  V30 1 F 10.755208 3.585640 -22.760962 0
M  V30 2 C 9.549776 7.071225 -10.853170 0
M  V30 3 C 9.925214 3.623204 -19.180230 0
M  V30 4 C 10.629882 3.412889 -20.382706 0
M  V30 5 C 7.709818 2.602788 -14.691762 0 CFG=1
M  V30 6 N 8.010153 3.625850 -16.912320 0
M  V30 7 O 11.135390 10.337702 -4.932443 0
M  V30 8 C 8.069889 4.601576 -20.468207 0
M  V30 9 F 9.763310 8.390288 -10.889993 0
M  V30 10 C 11.775116 10.352372 -5.984725 0
M  V30 11 C 7.375406 3.706348 -15.713439 0
M  V30 12 O 6.916054 5.352415 -17.942622 0
M  V30 13 C 8.013131 3.237747 -13.320217 0
M  V30 14 C 12.849541 6.852583 -17.191068 0
M  V30 15 C 11.686458 5.882257 -17.473967 0 CFG=1
M  V30 16 C 9.417460 7.211823 -8.336972 0
M  V30 17 C 6.177357 0.858546 -15.879274 0
M  V30 18 C 8.605124 4.214944 -19.216250 0
M  V30 19 O 13.824570 6.764506 -18.213651 0
M  V30 20 O 11.110356 6.309249 -18.690637 0
M  V30 21 C 11.219149 6.390042 -2.903246 0
M  V30 22 C 9.376362 6.420248 -9.620326 0
M  V30 23 C 10.703886 6.938353 -7.575279 0
M  V30 24 C 9.235978 4.174653 -13.273570 0
M  V30 25 C 8.795606 4.385629 -21.655682 0
M  V30 26 O 7.118607 0.438997 -13.768930 0
M  V30 27 C 9.123800 4.311409 -10.788385 0
M  V30 28 C 10.710190 6.517008 -4.346708 0
M  V30 29 O 6.577065 4.599520 -15.415620 0
M  V30 30 C 11.644157 7.220020 -5.278230 0
M  V30 31 C 6.617523 1.506989 -14.552806 0 CFG=1
M  V30 32 C 10.066699 3.788888 -21.613395 0
M  V30 33 C 7.773412 4.463613 -17.953913 0
M  V30 34 C 10.941181 7.939651 -6.439587 0 CFG=1
M  V30 35 S 10.729463 3.213751 -17.648392 0
M  V30 36 C 9.162671 5.034418 -9.587318 0
M  V30 37 C 12.120196 4.396245 -17.541146 0
M  V30 38 C 9.500938 6.343605 -12.044474 0
M  V30 39 C 9.284356 4.963547 -12.008337 0
M  V30 40 C 11.745145 9.160144 -6.944770 0
M  V30 41 H 11.616584 2.974901 -20.356725 0
M  V30 42 H 8.575351 2.072718 -15.059113 0
M  V30 43 H 8.692665 2.892550 -17.042683 0
M  V30 44 H 7.091111 5.056624 -20.517573 0
M  V30 45 H 12.388344 11.195421 -6.305624 0
M  V30 46 H 7.130887 3.783442 -12.978784 0
M  V30 47 H 8.156087 2.440762 -12.592063 0
M  V30 48 H 13.315212 6.629611 -16.231448 0
M  V30 49 H 12.496294 7.883495 -17.134854 0
M  V30 50 H 10.937843 5.996413 -16.689836 0
M  V30 51 H 9.305485 8.276237 -8.547050 0
M  V30 52 H 8.574920 6.925649 -7.713648 0
M  V30 53 H 5.776217 1.584918 -16.583702 0
M  V30 54 H 7.016509 0.366419 -16.371117 0
M  V30 55 H 5.405200 0.105070 -15.713057 0
M  V30 56 H 14.443760 7.471166 -18.101819 0
M  V30 57 H 11.824792 6.453108 -19.295844 0
M  V30 58 H 10.435716 5.990227 -2.260826 0
M  V30 59 H 12.089974 5.739935 -2.840804 0
M  V30 60 H 11.499667 7.360385 -2.487085 0
M  V30 61 H 10.644652 5.915267 -7.201472 0
M  V30 62 H 11.553027 6.958504 -8.256297 0
M  V30 63 H 10.145429 3.591999 -13.185124 0
M  V30 64 H 9.309223 4.835985 -14.137379 0
M  V30 65 H 8.372003 4.678938 -22.605127 0
M  V30 66 H 6.445675 -0.223230 -13.683173 0
M  V30 67 H 8.975795 3.245876 -10.784792 0
M  V30 68 H 9.775311 7.008945 -4.385026 0
M  V30 69 H 10.454670 5.589520 -4.790328 0
M  V30 70 H 12.226375 6.390236 -5.673701 0
M  V30 71 H 12.236047 7.919256 -4.692549 0
M  V30 72 H 5.770959 1.913110 -14.003573 0
M  V30 73 H 9.970872 8.306263 -6.095566 0
M  V30 74 H 9.033975 4.526135 -8.643798 0
M  V30 75 H 12.785661 4.230615 -18.389335 0
M  V30 76 H 12.687627 4.145315 -16.644644 0
M  V30 77 H 9.631222 6.843847 -12.984780 0
M  V30 78 H 12.772575 8.871413 -7.170619 0
M  V30 79 H 11.323130 9.520953 -7.882877 0
M  V30 END ATOM
M  V30 BEGIN BOND
M  V30 1 1 4 3
M  V30 2 1 9 2
M  V30 3 2 10 7
M  V30 4 1 11 5
M  V30 5 1 11 6
M  V30 6 1 13 5
M  V30 7 1 15 14
M  V30 8 2 18 3
M  V30 9 1 18 8
M  V30 10 1 19 14
M  V30 11 1 20 15
M  V30 12 2 22 2
M  V30 13 1 22 16
M  V30 14 1 23 16
M  V30 15 1 24 13
M  V30 16 2 25 8
M  V30 17 1 28 21
M  V30 18 2 29 11
M  V30 19 1 30 28
M  V30 20 1 31 5
M  V30 21 1 31 17
M  V30 22 1 31 26
M  V30 23 1 32 1
M  V30 24 2 32 4
M  V30 25 1 32 25
M  V30 26 1 33 6
M  V30 27 2 33 12
M  V30 28 1 33 18
M  V30 29 1 34 23
M  V30 30 1 34 30
M  V30 31 1 35 3
M  V30 32 1 36 22
M  V30 33 2 36 27
M  V30 34 1 37 15
M  V30 35 1 37 35
M  V30 36 1 38 2
M  V30 37 1 39 24
M  V30 38 1 39 27
M  V30 39 2 39 38
M  V30 40 1 40 10
M  V30 41 1 40 34
M  V30 42 1 41 4
M  V30 43 1 5 42 CFG=3
M  V30 44 1 43 6
M  V30 45 1 44 8
M  V30 46 1 45 10
M  V30 47 1 46 13
M  V30 48 1 47 13
M  V30 49 1 48 14
M  V30 50 1 49 14
M  V30 51 1 15 50 CFG=1
M  V30 52 1 51 16
M  V30 53 1 52 16
M  V30 54 1 53 17
M  V30 55 1 54 17
M  V30 56 1 55 17
M  V30 57 1 56 19
M  V30 58 1 57 20
M  V30 59 1 58 21
M  V30 60 1 59 21
M  V30 61 1 60 21
M  V30 62 1 61 23
M  V30 63 1 62 23
M  V30 64 1 63 24
M  V30 65 1 64 24
M  V30 66 1 65 25
M  V30 67 1 66 26
M  V30 68 1 67 27
M  V30 69 1 68 28
M  V30 70 1 69 28
M  V30 71 1 70 30
M  V30 72 1 71 30
M  V30 73 1 31 72 CFG=1
M  V30 74 1 34 73 CFG=1
M  V30 75 1 74 36
M  V30 76 1 75 37
M  V30 77 1 76 37
M  V30 78 1 77 38
M  V30 79 1 78 40
M  V30 80 1 79 40
M  V30 END BOND
M  V30 END CTAB
M  END
>  <i_epik_Tot_Q>  (1) 
0

>  <i_epik_Tot_abs_Q>  (1) 
0

>  <i_i_glide_confnum>  (1) 
7180

>  <i_i_glide_lignum>  (1) 
30

>  <i_i_glide_posenum>  (1) 
346

>  <i_i_glide_rotatable_bonds>  (1) 
22

>  <i_lp_mmshare_version>  (1) 
72125

>  <i_m_source_file_index>  (1) 
16

>  <i_f3d_flags>  (1) 
0

>  <num_sample>  (1) 
100

>  <b_lp_Chiralities_Consistent>  (1) 
1

>  <r_epik_Charging_Adjusted_Penalty>  (1) 
0

>  <r_epik_Ionization_Penalty>  (1) 
3.4355340850982391e-06

>  <r_epik_Ionization_Penalty_Charging>  (1) 
0

>  <r_epik_Ionization_Penalty_Neutral>  (1) 
3.4355340850982391e-06

>  <r_epik_State_Penalty>  (1) 
-0

>  <r_glide_ring_energy>  (1) 
0

>  <r_i_docking_score>  (1) 
-4.045654441903487

>  <r_i_glide_ecoul>  (1) 
-2.4329726885888543

>  <r_i_glide_eff_state_penalty>  (1) 
-0

>  <r_i_glide_einternal>  (1) 
10.080039937055325

>  <r_i_glide_emodel>  (1) 
-29.176990822355211

>  <r_i_glide_emodel_strain>  (1) 
1.9530734295349816

>  <r_i_glide_energy>  (1) 
-28.226424919565993

>  <r_i_glide_erotb>  (1) 
0.95789386429869372

>  <r_i_glide_esite>  (1) 
-0.064357250412463027

>  <r_i_glide_evdw>  (1) 
-25.793452230977138

>  <r_i_glide_gscore>  (1) 
-4.045654441903487

>  <r_i_glide_gscore_strain>  (1) 
0

>  <r_i_glide_hbond>  (1) 
0

>  <r_i_glide_ligand_efficiency>  (1) 
-0.10114136104758717

>  <r_i_glide_ligand_efficiency_ln>  (1) 
-0.86281903416260886

>  <r_i_glide_ligand_efficiency_sa>  (1) 
-0.345898589211035

>  <r_i_glide_lipo>  (1) 
-2.3628486814456728

>  <r_i_glide_metal>  (1) 
-0

>  <r_i_glide_rewards>  (1) 
-0.92172385950686031

>  <r_lp_Energy>  (1) 
37.492081999999996

>  <r_lp_tautomer_probability>  (1) 
1

>  <s_epik_cmdline>  (1) 
J2VwaWtfcHl0aG9uJywgJy1waHQnLCAnMS4wJywgJy1waCcsICc3LjQnLCAnLXRuJywgJzgnLCAnLW1hJywgJzUwMCcsICctaW1hZScsICc8aW5maWxlLm1hZT4nLCAnLW9tYWUnLCAnPG91dGZpbGUubWFlPic=

>  <s_epik_input>  (1) 
W09IXVtDSDJdW0NAQEhdKFtPSF0pW0NIMl1TYzFbY0hdYyhGKVtjSF1bY0hdYzFDKD1PKVtOSF1DKD1PKVtDQEhdKFtDQEBIXShbQ0gzXSlbT0hdKVtDSDJdW0NIMl1jKFtjSF0yKVtjSF1bY0hdYyhjMkYpW0NIMl1bQ0gyXVtDQEhdKFtDSDJdW0NIXT1PKVtDSDJdW0NIMl1bQ0gzXQ==

>  <s_glide_docking_method>  (1) 
confgen

>  <s_i_glide_gridfile>  (1) 
gpcr_drd2_6luq_protein_autoprepared_prepared

>  <s_lp_Force_Field>  (1) 
S-OPLS

>  <s_lp_Variant>  (1) 
DiffSBDD_15-1

>  <s_m_source_file>  (1) 
generated_generic_title2_ligand_DiffSBDD_2026-06-23_prepared.sdf

>  <GenAI_Model>  (1) 
DiffSBDD

>  <Protein>  (1) 
generic_title2

$$$$
DiffSBDD_30
     RDKit          3D

  0  0  0  0  0  0  0  0  0  0999 V3000
M  V30 BEGIN CTAB
M  V30 COUNTS 40 40 0 0 1
M  V30 BEGIN ATOM
M  V30 1 C 11.367713 7.266069 -4.744150 0
M  V30 2 C 10.706085 7.590637 -10.278083 0
M  V30 3 C 10.987477 7.127388 -7.903487 0
M  V30 4 N 5.751116 5.989434 -10.786084 0 CHG=1
M  V30 5 C 11.348410 8.645286 -5.064466 0
M  V30 6 C 5.903273 4.707916 -12.891956 0
M  V30 7 C 10.106698 6.713975 -6.724515 0
M  V30 8 N 10.202885 7.170174 -9.113480 0
M  V30 9 C 6.684846 5.379642 -11.755835 0 CFG=1
M  V30 10 O 11.860920 7.990292 -10.395417 0
M  V30 11 C 11.775039 9.587545 -4.127676 0
M  V30 12 C 11.827390 6.849067 -3.480445 0
M  V30 13 C 7.694728 6.421695 -12.289546 0
M  V30 14 C 9.767100 7.543935 -11.494338 0
M  V30 15 C 12.230750 9.169769 -2.862397 0
M  V30 16 C 12.260749 7.800547 -2.540669 0
M  V30 17 O 10.935614 6.326822 -5.643097 0
M  V30 18 N 8.574753 6.748595 -11.184808 0
M  V30 19 H 11.495786 8.079489 -7.764965 0
M  V30 20 H 11.774833 6.390022 -8.015914 0
M  V30 21 H 5.055004 6.529308 -11.277025 0
M  V30 22 H 5.311596 5.279840 -10.214942 0
M  V30 23 H 10.993417 8.983293 -6.019857 0
M  V30 24 H 6.575924 4.168138 -13.561262 0
M  V30 25 H 5.179573 3.989976 -12.504396 0
M  V30 26 H 5.360943 5.439291 -13.491066 0
M  V30 27 H 9.528757 5.830390 -6.997377 0
M  V30 28 H 9.374912 7.477176 -6.452074 0
M  V30 29 H 9.245726 6.851325 -9.073891 0
M  V30 30 H 7.233268 4.595900 -11.228361 0
M  V30 31 H 11.747075 10.631073 -4.382920 0
M  V30 32 H 11.842973 5.798333 -3.231442 0
M  V30 33 H 7.201761 7.317602 -12.672535 0
M  V30 34 H 8.280890 5.989218 -13.101503 0
M  V30 35 H 9.472596 8.555135 -11.772570 0
M  V30 36 H 10.304147 7.106081 -12.337040 0
M  V30 37 H 12.556569 9.900140 -2.139099 0
M  V30 38 H 12.611706 7.480808 -1.572469 0
M  V30 39 H 8.010372 7.226466 -10.472148 0
M  V30 40 H 6.262324 6.630201 -10.167129 0
M  V30 END ATOM
M  V30 BEGIN BOND
M  V30 1 2 5 1
M  V30 2 1 7 3
M  V30 3 1 8 2
M  V30 4 1 8 3
M  V30 5 1 9 4
M  V30 6 1 9 6
M  V30 7 2 10 2
M  V30 8 1 11 5
M  V30 9 1 12 1
M  V30 10 1 13 9
M  V30 11 1 14 2
M  V30 12 2 15 11
M  V30 13 2 16 12
M  V30 14 1 16 15
M  V30 15 1 17 1
M  V30 16 1 17 7
M  V30 17 1 18 13
M  V30 18 1 18 14
M  V30 19 1 19 3
M  V30 20 1 20 3
M  V30 21 1 21 4
M  V30 22 1 22 4
M  V30 23 1 23 5
M  V30 24 1 24 6
M  V30 25 1 25 6
M  V30 26 1 26 6
M  V30 27 1 27 7
M  V30 28 1 28 7
M  V30 29 1 29 8
M  V30 30 1 9 30 CFG=1
M  V30 31 1 31 11
M  V30 32 1 32 12
M  V30 33 1 33 13
M  V30 34 1 34 13
M  V30 35 1 35 14
M  V30 36 1 36 14
M  V30 37 1 37 15
M  V30 38 1 38 16
M  V30 39 1 39 18
M  V30 40 1 40 4
M  V30 END BOND
M  V30 END CTAB
M  END
>  <i_epik_Tot_Q>  (1) 
1

>  <i_epik_Tot_abs_Q>  (1) 
1

>  <i_i_glide_confnum>  (1) 
143

>  <i_i_glide_lignum>  (1) 
51

>  <i_i_glide_posenum>  (1) 
156

>  <i_i_glide_rotatable_bonds>  (1) 
9

>  <i_lp_mmshare_version>  (1) 
72125

>  <i_m_source_file_index>  (1) 
31

>  <i_f3d_flags>  (1) 
0

>  <num_sample>  (1) 
100

>  <b_lp_Chiralities_Consistent>  (1) 
1

>  <r_epik_Charging_Adjusted_Penalty>  (1) 
0.039337521643073213

>  <r_epik_Ionization_Penalty>  (1) 
0.013279431624003777

>  <r_epik_Ionization_Penalty_Charging>  (1) 
0.0075602006563197741

>  <r_epik_Ionization_Penalty_Neutral>  (1) 
0.0057192309676840029

>  <r_epik_State_Penalty>  (1) 
0.031777320986753441

>  <r_glide_ring_energy>  (1) 
0

>  <r_i_docking_score>  (1) 
-4.0350988502272189

>  <r_i_glide_ecoul>  (1) 
-13.580643449273486

>  <r_i_glide_eff_state_penalty>  (1) 
0.031777320986753441

>  <r_i_glide_einternal>  (1) 
8.1945397765200294

>  <r_i_glide_emodel>  (1) 
-49.104750786886427

>  <r_i_glide_emodel_strain>  (1) 
0.58088984548391664

>  <r_i_glide_energy>  (1) 
-39.224322439880872

>  <r_i_glide_erotb>  (1) 
3.8578777710225149

>  <r_i_glide_esite>  (1) 
-0.14116967077383261

>  <r_i_glide_evdw>  (1) 
-25.643678990607384

>  <r_i_glide_gscore>  (1) 
-4.0668761712139725

>  <r_i_glide_gscore_strain>  (1) 
0

>  <r_i_glide_hbond>  (1) 
-0.35999999999999999

>  <r_i_glide_ligand_efficiency>  (1) 
-0.22417215834595661

>  <r_i_glide_ligand_efficiency_ln>  (1) 
-1.0372013528108994

>  <r_i_glide_ligand_efficiency_sa>  (1) 
-0.58749725480639992

>  <r_i_glide_lipo>  (1) 
-2.1312082336904234

>  <r_i_glide_metal>  (1) 
-0

>  <r_i_glide_rewards>  (1) 
-1.9730955708508389

>  <r_lp_Energy>  (1) 
19.421258999999999

>  <r_lp_tautomer_probability>  (1) 
1

>  <s_epik_cmdline>  (1) 
J2VwaWtfcHl0aG9uJywgJy1waHQnLCAnMS4wJywgJy1waCcsICc3LjQnLCAnLXRuJywgJzgnLCAnLW1hJywgJzUwMCcsICctaW1hZScsICc8aW5maWxlLm1hZT4nLCAnLW9tYWUnLCAnPG91dGZpbGUubWFlPic=

>  <s_epik_input>  (1) 
W2NIXTFbY0hdW2NIXVtjSF1bY0hdYzFPW0NIMl1bQ0gyXVtOSF1DKD1PKVtDSDJdW05IXVtDSDJdW0NAQEhdKFtOSDJdKVtDSDNd

>  <s_glide_docking_method>  (1) 
confgen

>  <s_i_glide_gridfile>  (1) 
gpcr_drd2_6luq_protein_autoprepared_prepared

>  <s_lp_Force_Field>  (1) 
S-OPLS

>  <s_lp_Variant>  (1) 
DiffSBDD_30-1

>  <s_m_source_file>  (1) 
generated_generic_title2_ligand_DiffSBDD_2026-06-23_prepared.sdf

>  <GenAI_Model>  (1) 
DiffSBDD

>  <Protein>  (1) 
generic_title2

$$$$
DiffSBDD_78
     RDKit          3D

  0  0  0  0  0  0  0  0  0  0999 V3000
M  V30 BEGIN CTAB
M  V30 COUNTS 80 84 0 0 1
M  V30 BEGIN ATOM
M  V30 1 C 10.879498 8.727370 -6.482726 0 CFG=2
M  V30 2 C 11.921477 9.590227 -7.184924 0
M  V30 3 C 5.587537 4.630670 -11.961037 0 CFG=1
M  V30 4 C 7.252293 4.908519 -14.115267 0 CFG=2
M  V30 5 C 11.272997 8.500168 -5.018106 0
M  V30 6 N 8.975420 4.390237 -15.842173 0
M  V30 7 C 7.648327 3.884920 -13.003653 0 CFG=1
M  V30 8 C 7.756115 5.859058 -11.401578 0 CFG=1
M  V30 9 N 10.765321 7.398541 -7.111336 0 CFG=1 CHG=1
M  V30 10 C 10.533495 6.429434 -6.035816 0
M  V30 11 N 8.575411 7.108420 -11.235075 0 CFG=2 CHG=1
M  V30 12 C 5.419116 7.111300 -11.648070 0
M  V30 13 C 8.420722 5.422268 -14.978097 0
M  V30 14 C 8.899911 3.106274 -17.917454 0
M  V30 15 O 6.605502 6.054597 -13.514332 0
M  V30 16 C 8.559840 8.072119 -12.361049 0
M  V30 17 C 8.447725 3.134726 -19.388075 0 CFG=1
M  V30 18 C 5.885844 3.630185 -10.887967 0
M  V30 19 C 6.344556 5.960723 -12.103922 0 CFG=2
M  V30 20 F 7.113861 3.177110 -19.422316 0
M  V30 21 C 11.181818 6.992340 -4.782679 0
M  V30 22 C 4.575406 6.763929 -10.412980 0
M  V30 23 O 9.068073 5.484289 -17.892877 0
M  V30 24 C 8.530602 4.630041 -11.982120 0
M  V30 25 C 8.988549 4.406295 -20.063521 0 CFG=1
M  V30 26 C 10.354793 7.757323 -9.561627 0
M  V30 27 C 8.482913 4.414919 -17.212403 0 CFG=2
M  V30 28 C 9.780833 7.277111 -8.215600 0
M  V30 29 C 9.952938 6.856131 -10.732735 0
M  V30 30 C 8.865200 1.859209 -20.138241 0
M  V30 31 C 8.627149 5.649901 -19.236667 0
M  V30 32 C 6.356767 3.405769 -12.340897 0 CFG=1
M  V30 33 F 10.316293 4.341930 -20.192321 0
M  V30 34 H 9.895863 9.195712 -6.508131 0
M  V30 35 H 11.915009 10.592973 -6.755923 0
M  V30 36 H 12.928538 9.186508 -7.069423 0
M  V30 37 H 11.737921 9.687114 -8.252819 0
M  V30 38 H 4.581687 4.629569 -12.368167 0
M  V30 39 H 6.519983 4.442631 -14.776370 0
M  V30 40 H 10.602940 9.074367 -4.385060 0
M  V30 41 H 12.280772 8.853090 -4.792726 0
M  V30 42 H 9.984653 4.503942 -15.878412 0
M  V30 43 H 8.175869 3.027305 -13.422744 0
M  V30 44 H 7.560636 5.647512 -10.352541 0
M  V30 45 H 9.464781 6.269511 -5.876686 0
M  V30 46 H 11.008929 5.508941 -6.344189 0
M  V30 47 H 5.946231 8.039614 -11.470628 0
M  V30 48 H 4.755300 7.366578 -12.468364 0
M  V30 49 H 9.216363 5.804576 -14.346621 0
M  V30 50 H 8.083593 6.269425 -15.576341 0
M  V30 51 H 9.983723 2.993958 -17.849509 0
M  V30 52 H 8.448387 2.263897 -17.392893 0
M  V30 53 H 8.575404 7.555313 -13.307678 0
M  V30 54 H 7.683465 8.711471 -12.354565 0
M  V30 55 H 9.412272 8.748148 -12.325060 0
M  V30 56 H 6.627129 3.830939 -10.124841 0
M  V30 57 H 4.991058 3.190233 -10.463784 0
M  V30 58 H 10.622523 6.717089 -3.892235 0
M  V30 59 H 12.175413 6.569048 -4.665120 0
M  V30 60 H 3.949293 7.590225 -10.114220 0
M  V30 61 H 3.857474 5.990230 -10.610356 0
M  V30 62 H 5.163449 6.390227 -9.585089 0
M  V30 63 H 8.812555 3.948160 -11.179302 0
M  V30 64 H 9.469822 4.912270 -12.454707 0
M  V30 65 H 8.594435 4.500048 -21.075985 0
M  V30 66 H 11.443792 7.729463 -9.512491 0
M  V30 67 H 10.085734 8.796073 -9.751964 0
M  V30 68 H 7.396818 4.526574 -17.213328 0
M  V30 69 H 8.856339 7.800785 -7.971283 0
M  V30 70 H 9.506831 6.223726 -8.295688 0
M  V30 71 H 10.071403 5.830107 -10.393585 0
M  V30 72 H 10.665619 6.967309 -11.552230 0
M  V30 73 H 9.948405 1.730809 -20.132301 0
M  V30 74 H 8.424727 0.972015 -19.682258 0
M  V30 75 H 8.541750 1.890636 -21.179356 0
M  V30 76 H 7.551394 5.828641 -19.251983 0
M  V30 77 H 9.101742 6.535833 -19.657952 0
M  V30 78 H 5.811089 2.657738 -12.912782 0
M  V30 79 H 11.676662 7.170421 -7.480858 0
M  V30 80 H 8.052403 7.585098 -10.488128 0
M  V30 END ATOM
M  V30 BEGIN BOND
M  V30 1 1 2 1
M  V30 2 1 5 1
M  V30 3 1 7 4
M  V30 4 1 9 1
M  V30 5 1 10 9
M  V30 6 1 11 8
M  V30 7 1 13 4
M  V30 8 1 13 6
M  V30 9 1 15 4
M  V30 10 1 16 11
M  V30 11 1 17 14
M  V30 12 1 18 3
M  V30 13 1 19 3
M  V30 14 1 19 8
M  V30 15 1 19 12 CFG=1
M  V30 16 1 19 15
M  V30 17 1 17 20 CFG=1
M  V30 18 1 21 5
M  V30 19 1 21 10
M  V30 20 1 22 12
M  V30 21 1 24 7
M  V30 22 1 24 8
M  V30 23 1 25 17
M  V30 24 1 27 6
M  V30 25 1 27 14
M  V30 26 1 27 23
M  V30 27 1 28 9
M  V30 28 1 28 26
M  V30 29 1 29 11
M  V30 30 1 29 26
M  V30 31 1 30 17
M  V30 32 1 31 23
M  V30 33 1 31 25
M  V30 34 1 32 3
M  V30 35 1 32 7
M  V30 36 1 32 18
M  V30 37 1 33 25
M  V30 38 1 1 34 CFG=1
M  V30 39 1 35 2
M  V30 40 1 36 2
M  V30 41 1 37 2
M  V30 42 1 3 38 CFG=3
M  V30 43 1 4 39 CFG=3
M  V30 44 1 40 5
M  V30 45 1 41 5
M  V30 46 1 42 6
M  V30 47 1 7 43 CFG=3
M  V30 48 1 8 44 CFG=1
M  V30 49 1 45 10
M  V30 50 1 46 10
M  V30 51 1 47 12
M  V30 52 1 48 12
M  V30 53 1 49 13
M  V30 54 1 50 13
M  V30 55 1 51 14
M  V30 56 1 52 14
M  V30 57 1 53 16
M  V30 58 1 54 16
M  V30 59 1 55 16
M  V30 60 1 56 18
M  V30 61 1 57 18
M  V30 62 1 58 21
M  V30 63 1 59 21
M  V30 64 1 60 22
M  V30 65 1 61 22
M  V30 66 1 62 22
M  V30 67 1 63 24
M  V30 68 1 64 24
M  V30 69 1 25 65 CFG=3
M  V30 70 1 66 26
M  V30 71 1 67 26
M  V30 72 1 27 68 CFG=1
M  V30 73 1 69 28
M  V30 74 1 70 28
M  V30 75 1 71 29
M  V30 76 1 72 29
M  V30 77 1 73 30
M  V30 78 1 74 30
M  V30 79 1 75 30
M  V30 80 1 76 31
M  V30 81 1 77 31
M  V30 82 1 32 78 CFG=3
M  V30 83 1 9 79 CFG=3
M  V30 84 1 11 80 CFG=1
M  V30 END BOND
M  V30 END CTAB
M  END
>  <i_epik_Tot_Q>  (1) 
2

>  <i_epik_Tot_abs_Q>  (1) 
2

>  <i_i_glide_confnum>  (1) 
1359

>  <i_i_glide_lignum>  (1) 
130

>  <i_i_glide_posenum>  (1) 
226

>  <i_i_glide_rotatable_bonds>  (1) 
9

>  <i_lp_mmshare_version>  (1) 
72125

>  <i_m_source_file_index>  (1) 
79

>  <i_f3d_flags>  (1) 
0

>  <num_sample>  (1) 
100

>  <b_lp_Chiralities_Consistent>  (1) 
1

>  <r_epik_Charging_Adjusted_Penalty>  (1) 
0.22182564166484353

>  <r_epik_Ionization_Penalty>  (1) 
0.22182564166592098

>  <r_epik_Ionization_Penalty_Charging>  (1) 
0.060182310347739972

>  <r_epik_Ionization_Penalty_Neutral>  (1) 
0.16164333131818101

>  <r_epik_State_Penalty>  (1) 
0.16164333131710357

>  <r_glide_ring_energy>  (1) 
0

>  <r_i_docking_score>  (1) 
-4.0336698758478766

>  <r_i_glide_ecoul>  (1) 
-6.8860532411064312

>  <r_i_glide_eff_state_penalty>  (1) 
0.16164333131710357

>  <r_i_glide_einternal>  (1) 
17.759928687207079

>  <r_i_glide_emodel>  (1) 
-25.480281024039563

>  <r_i_glide_emodel_strain>  (1) 
6.1414903218516343

>  <r_i_glide_energy>  (1) 
-26.015514755153738

>  <r_i_glide_erotb>  (1) 
0.726867567680611

>  <r_i_glide_esite>  (1) 
-0.10000000000000001

>  <r_i_glide_evdw>  (1) 
-19.129461514047307

>  <r_i_glide_gscore>  (1) 
-4.1953132071649799

>  <r_i_glide_gscore_strain>  (1) 
0.53537258046290859

>  <r_i_glide_hbond>  (1) 
-0.20000000000000001

>  <r_i_glide_ligand_efficiency>  (1) 
-0.12223242048023869

>  <r_i_glide_ligand_efficiency_ln>  (1) 
-0.89706729516370376

>  <r_i_glide_ligand_efficiency_sa>  (1) 
-0.39206468492885055

>  <r_i_glide_lipo>  (1) 
-1.955948706922475

>  <r_i_glide_metal>  (1) 
-0

>  <r_i_glide_rewards>  (1) 
-1.212223586517694

>  <r_lp_Energy>  (1) 
68.58846299999999

>  <s_epik_Chemistry_Notes>  (1) 
This compound contains an acetal/aminal-like group ( X-CH(R)-Y where X, Y are N, S, or O) that may be acid/base labile, releasing an aldehyde.

>  <s_epik_cmdline>  (1) 
J2VwaWtfcHl0aG9uJywgJy1waHQnLCAnMS4wJywgJy1waCcsICc3LjQnLCAnLXRuJywgJzgnLCAnLW1hJywgJzUwMCcsICctaW1hZScsICc8aW5maWxlLm1hZT4nLCAnLW9tYWUnLCAnPG91dGZpbGUubWFlPic=

>  <s_epik_input>  (1) 
W0NIM11bQ0BASF0xW0NIMl1bQ0gyXVtDSDJdTjFbQ0gyXVtDSDJdW0NIMl1OKFtDSDNdKVtDQEBIXTJbQ0gyXVtDQEBIXShbQ0BASF0oW0NIMl0zKVtDQEBIXTNbQ0BAXTI0W0NIMl1bQ0gzXSlbQ0BASF0oTzQpW0NIMl1bTkhdW0NASF0oW0NIMl1bQ0BdNShGKVtDSDNdKU9bQ0gyXVtDQEhdNUY=

>  <s_glide_docking_method>  (1) 
confgen

>  <s_i_glide_gridfile>  (1) 
gpcr_drd2_6luq_protein_autoprepared_prepared

>  <s_lp_Force_Field>  (1) 
S-OPLS

>  <s_lp_Variant>  (1) 
DiffSBDD_78-2

>  <s_m_source_file>  (1) 
generated_generic_title2_ligand_DiffSBDD_2026-06-23_prepared.sdf

>  <GenAI_Model>  (1) 
DiffSBDD

>  <Protein>  (1) 
generic_title2

$$$$
DiffSBDD_88
     RDKit          3D

  0  0  0  0  0  0  0  0  0  0999 V3000
M  V30 BEGIN CTAB
M  V30 COUNTS 36 37 0 0 1
M  V30 BEGIN ATOM
M  V30 1 C 7.986205 4.698636 -16.998750 0 CFG=1
M  V30 2 F 6.175389 4.233051 -18.495658 0
M  V30 3 C 8.772602 4.742836 -12.918892 0
M  V30 4 C 9.375360 4.923352 -11.533595 0
M  V30 5 O 5.209409 4.343646 -13.334198 0
M  V30 6 O 8.371257 5.202617 -9.327665 0
M  V30 7 O 8.352546 3.443825 -17.123985 0 CHG=-1
M  V30 8 C 8.274914 5.567503 -10.688823 0 CFG=2
M  V30 9 C 6.515523 6.386602 -15.646811 0
M  V30 10 N 7.334608 4.727061 -12.658032 0
M  V30 11 C 7.173083 5.087774 -18.268806 0 CFG=1
M  V30 12 F 4.583166 6.258974 -16.991629 0
M  V30 13 C 5.783812 6.836256 -16.938949 0 CFG=2
M  V30 14 C 6.413588 4.371039 -13.588486 0
M  V30 15 C 5.809786 6.885137 -19.498956 0
M  V30 16 N 6.975412 4.059060 -14.818161 0
M  V30 17 C 7.137264 4.959778 -15.728435 0
M  V30 18 C 6.952710 5.103725 -11.306457 0
M  V30 19 C 6.596165 6.528206 -18.225451 0 CFG=2
M  V30 20 H 8.766346 5.458311 -16.937829 0
M  V30 21 H 9.136023 3.823256 -13.379629 0
M  V30 22 H 9.029862 5.585232 -13.562710 0
M  V30 23 H 10.274563 5.533426 -11.584949 0
M  V30 24 H 9.641104 3.946516 -11.127164 0
M  V30 25 H 7.809672 5.800562 -8.847256 0
M  V30 26 H 8.356956 6.651026 -10.785152 0
M  V30 27 H 5.803055 6.497976 -14.831474 0
M  V30 28 H 7.316101 7.086728 -15.409950 0
M  V30 29 H 7.822583 4.993511 -19.140569 0
M  V30 30 H 5.578624 7.906045 -16.880851 0
M  V30 31 H 4.914737 6.270872 -19.601238 0
M  V30 32 H 5.496068 7.929161 -19.484981 0
M  V30 33 H 6.418191 6.734582 -20.390930 0
M  V30 34 H 6.551998 4.229378 -10.789953 0
M  V30 35 H 6.202019 5.896464 -11.287005 0
M  V30 36 H 7.458994 7.190242 -18.223400 0
M  V30 END ATOM
M  V30 BEGIN BOND
M  V30 1 1 4 3
M  V30 2 1 7 1
M  V30 3 1 8 4
M  V30 4 1 8 6
M  V30 5 1 10 3
M  V30 6 1 11 1
M  V30 7 1 11 2
M  V30 8 1 13 9
M  V30 9 1 13 12
M  V30 10 2 14 5
M  V30 11 1 14 10
M  V30 12 1 16 14
M  V30 13 1 17 1
M  V30 14 1 17 9
M  V30 15 2 17 16
M  V30 16 1 18 8
M  V30 17 1 18 10
M  V30 18 1 19 11
M  V30 19 1 19 13
M  V30 20 1 19 15
M  V30 21 1 1 20 CFG=1
M  V30 22 1 21 3
M  V30 23 1 22 3
M  V30 24 1 23 4
M  V30 25 1 24 4
M  V30 26 1 25 6
M  V30 27 1 8 26 CFG=1
M  V30 28 1 27 9
M  V30 29 1 28 9
M  V30 30 1 11 29 CFG=3
M  V30 31 1 13 30 CFG=1
M  V30 32 1 31 15
M  V30 33 1 32 15
M  V30 34 1 33 15
M  V30 35 1 34 18
M  V30 36 1 35 18
M  V30 37 1 19 36 CFG=1
M  V30 END BOND
M  V30 END CTAB
M  END
>  <i_epik_Tot_Q>  (1) 
-1

>  <i_epik_Tot_abs_Q>  (1) 
1

>  <i_i_glide_confnum>  (1) 
1

>  <i_i_glide_lignum>  (1) 
163

>  <i_i_glide_posenum>  (1) 
386

>  <i_i_glide_rotatable_bonds>  (1) 
3

>  <i_lp_mmshare_version>  (1) 
72125

>  <i_m_source_file_index>  (1) 
89

>  <i_f3d_flags>  (1) 
0

>  <num_sample>  (1) 
100

>  <b_lp_Chiralities_Consistent>  (1) 
1

>  <r_epik_Charging_Adjusted_Penalty>  (1) 
1.6999520965461032

>  <r_epik_Ionization_Penalty>  (1) 
0.8499760961676609

>  <r_epik_Ionization_Penalty_Charging>  (1) 
0.84997604827305151

>  <r_epik_Ionization_Penalty_Neutral>  (1) 
4.7894609424591191e-08

>  <r_epik_State_Penalty>  (1) 
0.84997604827305173

>  <r_glide_ring_energy>  (1) 
0

>  <r_i_docking_score>  (1) 
-4.0312645608506701

>  <r_i_glide_ecoul>  (1) 
-1.2532227255795989

>  <r_i_glide_eff_state_penalty>  (1) 
0.84997604827305173

>  <r_i_glide_einternal>  (1) 
2.9013237433128096

>  <r_i_glide_emodel>  (1) 
-31.105342586363971

>  <r_i_glide_emodel_strain>  (1) 
0.0026822761935605399

>  <r_i_glide_energy>  (1) 
-25.676406737077386

>  <r_i_glide_erotb>  (1) 
0.4743209619600951

>  <r_i_glide_esite>  (1) 
0

>  <r_i_glide_evdw>  (1) 
-24.423184011497789

>  <r_i_glide_gscore>  (1) 
-4.8812406091237222

>  <r_i_glide_gscore_strain>  (1) 
0

>  <r_i_glide_hbond>  (1) 
-0.040352729907520271

>  <r_i_glide_ligand_efficiency>  (1) 
-0.21217181899214052

>  <r_i_glide_ligand_efficiency_ln>  (1) 
-1.0220121497994572

>  <r_i_glide_ligand_efficiency_sa>  (1) 
-0.56615963161096194

>  <r_i_glide_lipo>  (1) 
-1.2444544075533681

>  <r_i_glide_metal>  (1) 
-0

>  <r_i_glide_rewards>  (1) 
-2.6616118242111

>  <r_lp_Energy>  (1) 
28.916074999999999

>  <s_epik_Chemistry_Notes>  (1) 
This compound has an imine and may undergo hydrolysis.

>  <s_epik_cmdline>  (1) 
J2VwaWtfcHl0aG9uJywgJy1waHQnLCAnMS4wJywgJy1waCcsICc3LjQnLCAnLXRuJywgJzgnLCAnLW1hJywgJzUwMCcsICctaW1hZScsICc8aW5maWxlLm1hZT4nLCAnLW9tYWUnLCAnPG91dGZpbGUubWFlPic=

>  <s_epik_input>  (1) 
W09IXVtDQEhdMVtDQEBIXShGKVtDQEBIXShbQ0gzXSlbQ0BASF0oRilbQ0gyXUMvMT1OXEMoPU8pTihbQ0gyXTIpW0NIMl1bQ0gyXVtDQEBIXTJbT0hd

>  <s_glide_docking_method>  (1) 
confgen

>  <s_i_glide_gridfile>  (1) 
gpcr_drd2_6luq_protein_autoprepared_prepared

>  <s_lp_Force_Field>  (1) 
S-OPLS

>  <s_lp_Variant>  (1) 
DiffSBDD_88-4

>  <s_m_source_file>  (1) 
generated_generic_title2_ligand_DiffSBDD_2026-06-23_prepared.sdf

>  <GenAI_Model>  (1) 
DiffSBDD

>  <Protein>  (1) 
generic_title2

$$$$
DiffSBDD_90
     RDKit          3D

  0  0  0  0  0  0  0  0  0  0999 V3000
M  V30 BEGIN CTAB
M  V30 COUNTS 80 84 0 0 1
M  V30 BEGIN ATOM
M  V30 1 C 7.517787 6.927171 -13.589091 0
M  V30 2 C 8.742814 6.044822 -13.195234 0 CFG=1
M  V30 3 C 9.967934 7.698156 -10.182730 0
M  V30 4 C 7.786436 5.182615 -18.054765 0 CFG=2
M  V30 5 C 10.913595 6.903166 -11.985020 0
M  V30 6 C 9.909037 8.331857 -8.896099 0 CFG=2
M  V30 7 C 6.789308 3.541226 -14.962659 0 CFG=2
M  V30 8 O 5.775410 6.269101 -15.222878 0
M  V30 9 C 6.459062 5.912276 -14.033001 0 CFG=1
M  V30 10 C 8.698880 6.531601 -20.047161 0
M  V30 11 O 10.778182 5.065537 -16.677418 0
M  V30 12 C 9.556237 6.672519 -12.103751 0
M  V30 13 C 7.787352 3.990282 -11.819264 0 CFG=2
M  V30 14 O 12.131364 3.807769 -17.950020 0 CHG=-1
M  V30 15 O 6.982516 6.134131 -17.656586 0 CHG=-1
M  V30 16 C 7.655198 3.310370 -16.260718 0 CFG=2
M  V30 17 N 8.159956 4.614575 -16.753698 0 CHG=1
M  V30 18 N 7.245645 4.714727 -14.230991 0
M  V30 19 C 10.811648 2.861850 -20.272334 0
M  V30 20 C 7.095252 2.374961 -17.368133 0
M  V30 21 O 8.512688 4.390225 -10.680439 0
M  V30 22 O 6.885653 1.044184 -16.948501 0
M  V30 23 O 8.033311 0.810403 -12.785020 0
M  V30 24 C 8.694335 3.220266 -12.763391 0 CFG=1
M  V30 25 C 11.118228 4.511239 -17.748297 0
M  V30 26 C 6.725785 2.293001 -14.073516 0
M  V30 27 N 11.079000 7.540118 -10.784979 0
M  V30 28 O 10.747814 1.910851 -19.488984 0
M  V30 29 C 11.474629 8.688212 -8.881054 0
M  V30 30 N 9.006005 7.192219 -10.942997 0 CHG=1
M  V30 31 C 9.050649 5.792663 -18.735690 0 CFG=2
M  V30 32 O 10.176099 8.455016 -5.981112 0
M  V30 33 O 9.545002 7.384153 -7.911015 0
M  V30 34 C 9.116969 7.952625 -6.725569 0
M  V30 35 C 11.558330 2.718322 -21.594801 0
M  V30 36 C 10.162923 4.732824 -18.958649 0
M  V30 37 C 8.118521 1.995617 -13.512506 0 CFG=2
M  V30 38 C 10.974880 7.431257 -5.404164 0
M  V30 39 N 10.245844 4.116891 -20.093384 0
M  V30 40 C 12.240904 8.029606 -10.125997 0
M  V30 41 C 8.180291 4.622042 -13.138783 0 CFG=1
M  V30 42 H 7.119798 7.509634 -12.757332 0
M  V30 43 H 7.775384 7.628526 -14.382181 0
M  V30 44 H 9.412875 5.990222 -14.052266 0
M  V30 45 H 7.452202 4.422944 -18.757128 0
M  V30 46 H 11.737423 6.676746 -12.647645 0
M  V30 47 H 9.242035 9.190186 -8.977157 0
M  V30 48 H 5.775409 3.793755 -15.185025 0
M  V30 49 H 6.326963 6.262019 -16.016324 0
M  V30 50 H 5.729677 5.748315 -13.238365 0
M  V30 51 H 9.586797 6.969738 -20.503460 0
M  V30 52 H 8.237653 5.864856 -20.775848 0
M  V30 53 H 7.997970 7.345796 -19.861856 0
M  V30 54 H 6.763132 3.683018 -11.621880 0
M  V30 55 H 8.599615 2.860114 -15.974947 0
M  V30 56 H 7.852588 5.297284 -16.079452 0
M  V30 57 H 7.813826 2.306690 -18.187014 0
M  V30 58 H 6.175475 2.757689 -17.802437 0
M  V30 59 H 8.615331 3.643445 -10.109798 0
M  V30 60 H 7.718317 0.627447 -16.784748 0
M  V30 61 H 8.745523 0.790230 -12.150876 0
M  V30 62 H 9.744809 3.138767 -12.489067 0
M  V30 63 H 6.009667 2.450027 -13.267752 0
M  V30 64 H 6.331470 1.431671 -14.607828 0
M  V30 65 H 11.584130 9.768687 -8.963150 0
M  V30 66 H 11.948366 8.410837 -7.940630 0
M  V30 67 H 9.458612 6.561441 -18.082912 0
M  V30 68 H 8.404685 8.756129 -6.917311 0
M  V30 69 H 8.580470 7.184396 -6.168879 0
M  V30 70 H 11.952959 3.679656 -21.926791 0
M  V30 71 H 12.397192 2.031818 -21.480669 0
M  V30 72 H 10.893559 2.328428 -22.366047 0
M  V30 73 H 8.778644 1.669084 -14.304510 0
M  V30 74 H 11.771960 7.880196 -4.811281 0
M  V30 75 H 10.388495 6.787709 -4.746556 0
M  V30 76 H 11.436601 6.806646 -6.168896 0
M  V30 77 H 12.868862 7.192901 -9.830678 0
M  V30 78 H 12.774083 8.741796 -10.756580 0
M  V30 79 H 8.013568 7.189696 -10.692042 0
M  V30 80 H 9.181834 4.629057 -16.694710 0
M  V30 END ATOM
M  V30 BEGIN BOND
M  V30 1 1 2 1
M  V30 2 1 6 3
M  V30 3 1 9 1
M  V30 4 1 9 8
M  V30 5 1 12 2
M  V30 6 2 12 5
M  V30 7 1 15 4
M  V30 8 1 16 7
M  V30 9 1 17 4
M  V30 10 1 17 16
M  V30 11 1 18 7
M  V30 12 1 18 9
M  V30 13 1 20 16
M  V30 14 1 21 13
M  V30 15 1 22 20
M  V30 16 1 24 13
M  V30 17 2 25 11
M  V30 18 1 25 14
M  V30 19 1 26 7
M  V30 20 1 27 3
M  V30 21 1 27 5
M  V30 22 2 28 19
M  V30 23 1 29 6
M  V30 24 2 30 3
M  V30 25 1 30 12
M  V30 26 1 31 4
M  V30 27 1 31 10
M  V30 28 1 33 6
M  V30 29 1 34 32
M  V30 30 1 34 33
M  V30 31 1 35 19
M  V30 32 1 36 25
M  V30 33 1 36 31
M  V30 34 1 37 23
M  V30 35 1 37 24
M  V30 36 1 37 26
M  V30 37 1 38 32
M  V30 38 1 39 19
M  V30 39 2 39 36
M  V30 40 1 40 27
M  V30 41 1 40 29
M  V30 42 1 41 2
M  V30 43 1 41 13
M  V30 44 1 41 18 CFG=3
M  V30 45 1 41 24
M  V30 46 1 42 1
M  V30 47 1 43 1
M  V30 48 1 2 44 CFG=3
M  V30 49 1 4 45 CFG=3
M  V30 50 1 46 5
M  V30 51 1 6 47 CFG=3
M  V30 52 1 7 48 CFG=3
M  V30 53 1 49 8
M  V30 54 1 9 50 CFG=1
M  V30 55 1 51 10
M  V30 56 1 52 10
M  V30 57 1 53 10
M  V30 58 1 13 54 CFG=1
M  V30 59 1 16 55 CFG=1
M  V30 60 1 56 17
M  V30 61 1 57 20
M  V30 62 1 58 20
M  V30 63 1 59 21
M  V30 64 1 60 22
M  V30 65 1 61 23
M  V30 66 1 24 62 CFG=1
M  V30 67 1 63 26
M  V30 68 1 64 26
M  V30 69 1 65 29
M  V30 70 1 66 29
M  V30 71 1 31 67 CFG=1
M  V30 72 1 68 34
M  V30 73 1 69 34
M  V30 74 1 70 35
M  V30 75 1 71 35
M  V30 76 1 72 35
M  V30 77 1 37 73 CFG=3
M  V30 78 1 74 38
M  V30 79 1 75 38
M  V30 80 1 76 38
M  V30 81 1 77 40
M  V30 82 1 78 40
M  V30 83 1 79 30
M  V30 84 1 80 17
M  V30 END BOND
M  V30 END CTAB
M  END
>  <i_epik_Tot_Q>  (1) 
0

>  <i_epik_Tot_abs_Q>  (1) 
4

>  <i_i_glide_confnum>  (1) 
2387

>  <i_i_glide_lignum>  (1) 
171

>  <i_i_glide_posenum>  (1) 
26

>  <i_i_glide_rotatable_bonds>  (1) 
16

>  <i_lp_mmshare_version>  (1) 
72125

>  <i_m_source_file_index>  (1) 
91

>  <i_f3d_flags>  (1) 
0

>  <num_sample>  (1) 
100

>  <b_lp_Chiralities_Consistent>  (1) 
1

>  <r_epik_Charging_Adjusted_Penalty>  (1) 
1.4758035429533554

>  <r_epik_Ionization_Penalty>  (1) 
0.33648449588267881

>  <r_epik_Ionization_Penalty_Charging>  (1) 
0.24231300703988756

>  <r_epik_Ionization_Penalty_Neutral>  (1) 
0.094171488842791265

>  <r_epik_State_Penalty>  (1) 
1.2334905359134678

>  <r_glide_ring_energy>  (1) 
0

>  <r_i_docking_score>  (1) 
-4.0223779308588901

>  <r_i_glide_ecoul>  (1) 
-8.0298063396372541

>  <r_i_glide_eff_state_penalty>  (1) 
1.2334905359134678

>  <r_i_glide_einternal>  (1) 
12.577473752473828

>  <r_i_glide_emodel>  (1) 
-45.584394650548631

>  <r_i_glide_emodel_strain>  (1) 
0.80759980333266412

>  <r_i_glide_energy>  (1) 
-37.408353868423887

>  <r_i_glide_erotb>  (1) 
0.57888693115673628

>  <r_i_glide_esite>  (1) 
-0.26749717576443405

>  <r_i_glide_evdw>  (1) 
-29.37854752878663

>  <r_i_glide_gscore>  (1) 
-5.2558684667723581

>  <r_i_glide_gscore_strain>  (1) 
0

>  <r_i_glide_hbond>  (1) 
-0.47765298660897454

>  <r_i_glide_ligand_efficiency>  (1) 
-0.09810677880143634

>  <r_i_glide_ligand_efficiency_ln>  (1) 
-0.85336086389176702

>  <r_i_glide_ligand_efficiency_sa>  (1) 
-0.33829348606152781

>  <r_i_glide_lipo>  (1) 
-1.9675520195400533

>  <r_i_glide_metal>  (1) 
-0

>  <r_i_glide_rewards>  (1) 
-0.44865488863071279

>  <r_lp_Energy>  (1) 
73.410639000000003

>  <s_epik_Chemistry_Notes>  (1) 
This compound has an imine and may undergo hydrolysis. This compound contains an acetal/aminal-like group ( X-CH(R)-Y where X, Y are N, S, or O) that may be acid/base labile, releasing an aldehyde.

>  <s_epik_cmdline>  (1) 
J2VwaWtfcHl0aG9uJywgJy1waHQnLCAnMS4wJywgJy1waCcsICc3LjQnLCAnLXRuJywgJzgnLCAnLW1hJywgJzUwMCcsICctaW1hZScsICc8aW5maWxlLm1hZT4nLCAnLW9tYWUnLCAnPG91dGZpbGUubWFlPic=

>  <s_epik_input>  (1) 
W0NIM11PW0NIMl1PW0NASF0xW0NIMl1bQ0gyXW4oYzEyKVtjSF1jKG4yKVtDQEBIXTNbQ0gyXVtDQEBIXShbT0hdKU4oW0NAQF0zNDUpW0NASF0oW0NIMl1bQ0BIXShbT0hdKVtDQEBIXTVbQ0BIXTRbT0hdKVtDQEBIXShbQ0gyXVtPSF0pW05IXVtDQEBIXShbT0hdKVtDQEhdKFtDSDNdKUMoXEMoPU8pW09IXSk9TlxDKD1PKVtDSDNd

>  <s_glide_docking_method>  (1) 
confgen

>  <s_i_glide_gridfile>  (1) 
gpcr_drd2_6luq_protein_autoprepared_prepared

>  <s_lp_Force_Field>  (1) 
S-OPLS

>  <s_lp_Variant>  (1) 
DiffSBDD_90-6

>  <s_m_source_file>  (1) 
generated_generic_title2_ligand_DiffSBDD_2026-06-23_prepared.sdf

>  <GenAI_Model>  (1) 
DiffSBDD

>  <Protein>  (1) 
generic_title2

$$$$
DiffSBDD_1
     RDKit          3D

  0  0  0  0  0  0  0  0  0  0999 V3000
M  V30 BEGIN CTAB
M  V30 COUNTS 73 75 0 0 1
M  V30 BEGIN ATOM
M  V30 1 F 9.552548 7.189965 -19.777577 0
M  V30 2 C 10.418885 6.706540 -9.570736 0
M  V30 3 C 6.056074 6.587581 -20.744463 0
M  V30 4 C 8.574718 6.280907 -19.915957 0
M  V30 5 C 7.467583 7.100985 -12.931543 0 CFG=1
M  V30 6 C 6.676875 3.687670 -18.229623 0
M  V30 7 F 7.736081 5.491466 -22.009954 0
M  V30 8 C 8.266862 5.049795 -7.828862 0
M  V30 9 C 6.156370 5.035192 -18.737141 0 CFG=1
M  V30 10 C 5.371294 5.409506 -19.989858 0
M  V30 11 C 8.775090 7.522088 -12.222920 0
M  V30 12 C 6.058398 6.139435 -17.645749 0 CFG=1
M  V30 13 C 8.042317 3.671029 -14.208362 0
M  V30 14 O 11.099749 6.790468 -12.373976 0
M  V30 15 C 6.530892 6.187415 -15.175402 0
M  V30 16 C 7.612923 6.064041 -14.081631 0 CFG=2
M  V30 17 C 9.791125 5.982692 -10.521138 0
M  V30 18 C 9.062744 4.687081 -10.213030 0
M  V30 19 N 8.502528 5.312627 -19.076402 0
M  V30 20 C 6.796793 2.832405 -14.443433 0
M  V30 21 O 6.167195 0.003792 -12.011978 0
M  V30 22 O 4.691955 6.390173 -17.365004 0
M  V30 23 C 7.115398 1.417757 -14.889732 0
M  V30 24 C 7.574922 6.448958 -21.094327 0 CFG=1
M  V30 25 C 5.540382 0.313732 -13.240658 0
M  V30 26 C 9.801044 6.399027 -11.972581 0 CFG=1
M  V30 27 C 6.564730 0.309842 -14.357524 0
M  V30 28 O 5.375844 6.464938 -14.869719 0
M  V30 29 C 7.425704 4.386098 -19.302991 0 CFG=1
M  V30 30 O 6.470933 6.739213 -11.985041 0
M  V30 31 C 9.091540 6.298511 -7.465958 0
M  V30 32 N 6.933457 5.990269 -16.454157 0
M  V30 33 C 7.858431 4.876786 -9.292104 0
M  V30 34 C 10.474336 6.328809 -8.107758 0
M  V30 35 O 7.616748 4.787191 -13.457323 0
M  V30 36 H 10.929901 7.616313 -9.849470 0
M  V30 37 H 5.510671 6.749419 -21.674900 0
M  V30 38 H 5.909931 7.510906 -20.184239 0
M  V30 39 H 7.071971 7.990312 -13.395005 0
M  V30 40 H 7.187385 3.602054 -17.275265 0
M  V30 41 H 6.097220 2.808847 -18.505754 0
M  V30 42 H 8.843578 4.162262 -7.585050 0
M  V30 43 H 7.375809 5.035497 -7.203340 0
M  V30 44 H 5.297769 4.542368 -20.648383 0
M  V30 45 H 4.341735 5.662620 -19.738980 0
M  V30 46 H 9.254751 8.315643 -12.785023 0
M  V30 47 H 8.532632 8.026319 -11.285796 0
M  V30 48 H 6.411743 7.070514 -18.083982 0
M  V30 49 H 8.742012 3.121056 -13.580404 0
M  V30 50 H 8.558730 3.933148 -15.132957 0
M  V30 51 H 11.484091 6.067876 -12.851225 0
M  V30 52 H 8.575429 6.219794 -14.567093 0
M  V30 53 H 8.722791 4.215555 -11.135090 0
M  V30 54 H 9.775295 3.989964 -9.775268 0
M  V30 55 H 6.176293 3.322122 -15.184970 0
M  V30 56 H 6.230399 2.847762 -13.516511 0
M  V30 57 H 6.838367 0.649330 -11.851363 0
M  V30 58 H 4.621948 6.492041 -16.419926 0
M  V30 59 H 7.835768 1.318795 -15.688446 0
M  V30 60 H 7.869596 7.357283 -21.620039 0
M  V30 61 H 4.763332 -0.409758 -13.462631 0
M  V30 62 H 4.997140 1.250877 -13.185013 0
M  V30 63 H 9.643297 5.524412 -12.590345 0
M  V30 64 H 6.856055 -0.659858 -14.734428 0
M  V30 65 H 7.468249 3.861617 -20.257745 0
M  V30 66 H 6.621278 7.189308 -11.151475 0
M  V30 67 H 9.213578 6.321633 -6.382635 0
M  V30 68 H 8.576077 7.219266 -7.722682 0
M  V30 69 H 7.901780 5.757868 -16.623476 0
M  V30 70 H 7.220855 3.996741 -9.361452 0
M  V30 71 H 7.229132 5.683866 -9.640049 0
M  V30 72 H 10.975383 5.369495 -7.984922 0
M  V30 73 H 11.095259 7.067832 -7.602415 0
M  V30 END ATOM
M  V30 BEGIN BOND
M  V30 1 1 4 1
M  V30 2 1 9 6 CFG=1
M  V30 3 1 10 3
M  V30 4 1 10 9
M  V30 5 1 11 5
M  V30 6 1 12 9
M  V30 7 1 16 5
M  V30 8 1 16 15
M  V30 9 2 17 2
M  V30 10 1 18 17
M  V30 11 2 19 4
M  V30 12 1 20 13
M  V30 13 1 22 12
M  V30 14 1 23 20
M  V30 15 1 24 3
M  V30 16 1 24 4
M  V30 17 1 24 7
M  V30 18 1 25 21
M  V30 19 1 26 11
M  V30 20 1 26 14
M  V30 21 1 26 17
M  V30 22 2 27 23
M  V30 23 1 27 25
M  V30 24 2 28 15
M  V30 25 1 29 6
M  V30 26 1 29 9
M  V30 27 1 29 19
M  V30 28 1 30 5
M  V30 29 1 31 8
M  V30 30 1 32 12
M  V30 31 1 32 15
M  V30 32 1 33 8
M  V30 33 1 33 18
M  V30 34 1 34 2
M  V30 35 1 34 31
M  V30 36 1 35 13
M  V30 37 1 35 16
M  V30 38 1 36 2
M  V30 39 1 37 3
M  V30 40 1 38 3
M  V30 41 1 5 39 CFG=3
M  V30 42 1 40 6
M  V30 43 1 41 6
M  V30 44 1 42 8
M  V30 45 1 43 8
M  V30 46 1 44 10
M  V30 47 1 45 10
M  V30 48 1 46 11
M  V30 49 1 47 11
M  V30 50 1 12 48 CFG=3
M  V30 51 1 49 13
M  V30 52 1 50 13
M  V30 53 1 51 14
M  V30 54 1 16 52 CFG=3
M  V30 55 1 53 18
M  V30 56 1 54 18
M  V30 57 1 55 20
M  V30 58 1 56 20
M  V30 59 1 57 21
M  V30 60 1 58 22
M  V30 61 1 59 23
M  V30 62 1 24 60 CFG=3
M  V30 63 1 61 25
M  V30 64 1 62 25
M  V30 65 1 26 63 CFG=3
M  V30 66 1 64 27
M  V30 67 1 29 65 CFG=3
M  V30 68 1 66 30
M  V30 69 1 67 31
M  V30 70 1 68 31
M  V30 71 1 69 32
M  V30 72 1 70 33
M  V30 73 1 71 33
M  V30 74 1 72 34
M  V30 75 1 73 34
M  V30 END BOND
M  V30 END CTAB
M  END
>  <i_epik_Tot_Q>  (1) 
0

>  <i_epik_Tot_abs_Q>  (1) 
0

>  <i_i_glide_confnum>  (1) 
2898

>  <i_i_glide_lignum>  (1) 
2

>  <i_i_glide_posenum>  (1) 
193

>  <i_i_glide_rotatable_bonds>  (1) 
17

>  <i_lp_mmshare_version>  (1) 
72125

>  <i_m_source_file_index>  (1) 
2

>  <i_f3d_flags>  (1) 
0

>  <num_sample>  (1) 
100

>  <b_lp_Chiralities_Consistent>  (1) 
1

>  <r_epik_Charging_Adjusted_Penalty>  (1) 
0

>  <r_epik_Ionization_Penalty>  (1) 
3.3646854675809213e-05

>  <r_epik_Ionization_Penalty_Charging>  (1) 
0

>  <r_epik_Ionization_Penalty_Neutral>  (1) 
3.3646854675809213e-05

>  <r_epik_State_Penalty>  (1) 
-0

>  <r_glide_ring_energy>  (1) 
0.00078572505473429135

>  <r_i_docking_score>  (1) 
-4.006816456762011

>  <r_i_glide_ecoul>  (1) 
-5.335787912857004

>  <r_i_glide_eff_state_penalty>  (1) 
-0

>  <r_i_glide_einternal>  (1) 
26.443079126384958

>  <r_i_glide_emodel>  (1) 
-31.195042653209683

>  <r_i_glide_emodel_strain>  (1) 
3.7207447625169578

>  <r_i_glide_energy>  (1) 
-39.533296149885487

>  <r_i_glide_erotb>  (1) 
0.89639897310018468

>  <r_i_glide_esite>  (1) 
0

>  <r_i_glide_evdw>  (1) 
-34.197508237028487

>  <r_i_glide_gscore>  (1) 
-4.006816456762011

>  <r_i_glide_gscore_strain>  (1) 
0

>  <r_i_glide_hbond>  (1) 
-0.33229850203425471

>  <r_i_glide_ligand_efficiency>  (1) 
-0.11448047019320032

>  <r_i_glide_ligand_efficiency_ln>  (1) 
-0.87958513875928623

>  <r_i_glide_ligand_efficiency_sa>  (1) 
-0.37447320922352662

>  <r_i_glide_lipo>  (1) 
-1.0825331294213221

>  <r_i_glide_metal>  (1) 
-0

>  <r_i_glide_rewards>  (1) 
-0.97814019962664456

>  <r_lp_Energy>  (1) 
34.404662999999999

>  <r_lp_tautomer_probability>  (1) 
1

>  <s_epik_Chemistry_Notes>  (1) 
This compound has an imine and may undergo hydrolysis. This compound contains an acetal/aminal-like group ( X-CH(R)-Y where X, Y are N, S, or O) that may be acid/base labile, releasing an aldehyde.

>  <s_epik_cmdline>  (1) 
J2VwaWtfcHl0aG9uJywgJy1waHQnLCAnMS4wJywgJy1waCcsICc3LjQnLCAnLXRuJywgJzgnLCAnLW1hJywgJzUwMCcsICctaW1hZScsICc8aW5maWxlLm1hZT4nLCAnLW9tYWUnLCAnPG91dGZpbGUubWFlPic=

>  <s_epik_input>  (1) 
W0NIMl0xW0NIMl1bQ0BIXShGKUMoRik9TltDQEBIXShbQ0gyXTIpQzEyW0NAQEhdKFtPSF0pW05IXUMoPU8pW0NASF0oT1tDSDJdW0NIMl0vW0NIXT1bQ0hdXFtDSDJdW09IXSlbQ0BASF0oW09IXSlbQ0gyXVtDQEBIXShbT0hdKUMzPVtDSF1bQ0gyXVtDSDJdW0NIMl1bQ0gyXVtDSDJdMw==

>  <s_glide_docking_method>  (1) 
confgen

>  <s_i_glide_gridfile>  (1) 
gpcr_drd2_6luq_protein_autoprepared_prepared

>  <s_lp_Force_Field>  (1) 
S-OPLS

>  <s_lp_Variant>  (1) 
DiffSBDD_1-1

>  <s_m_source_file>  (1) 
generated_generic_title2_ligand_DiffSBDD_2026-06-23_prepared.sdf

>  <GenAI_Model>  (1) 
DiffSBDD

>  <Protein>  (1) 
generic_title2

$$$$
DiffSBDD_83
     RDKit          3D

  0  0  0  0  0  0  0  0  0  0999 V3000
M  V30 BEGIN CTAB
M  V30 COUNTS 46 48 0 0 1
M  V30 BEGIN ATOM
M  V30 1 C 4.574901 -1.413325 -19.138676 0
M  V30 2 C 5.872677 6.781187 -12.474063 0
M  V30 3 C 6.436732 4.433517 -12.120135 0
M  V30 4 C 7.363274 1.974889 -13.175542 0
M  V30 5 F 6.045032 7.709198 -14.674866 0
M  V30 6 C 6.003965 5.674478 -11.613386 0
M  V30 7 C 6.610321 5.410703 -14.353564 0
M  V30 8 C 6.158974 -0.185151 -17.987407 0 CFG=1
M  V30 9 C 6.175449 6.647909 -13.844550 0
M  V30 10 N 5.148588 -0.670941 -19.983471 0 CHG=1
M  V30 11 N 7.932495 -0.409767 -16.126415 0 CFG=1 CHG=1
M  V30 12 C 5.022641 -1.279543 -17.752764 0 CFG=2
M  V30 13 C 6.744047 4.299314 -13.499575 0
M  V30 14 C 5.425690 -2.657057 -17.207459 0
M  V30 15 C 8.668539 0.304959 -17.167167 0
M  V30 16 O 7.173209 3.097379 -14.024227 0
M  V30 17 C 7.987118 0.846291 -13.996903 0
M  V30 18 F 5.451873 7.972479 -11.985022 0
M  V30 19 C 5.878967 1.678471 -19.820014 0
M  V30 20 C 7.129025 0.419470 -15.196555 0
M  V30 21 C 7.545324 -0.638237 -17.516982 0 CFG=2
M  V30 22 C 6.185639 0.203530 -19.524338 0 CFG=1
M  V30 23 H 3.795866 -2.095337 -19.456805 0
M  V30 24 H 6.532201 3.592607 -11.452155 0
M  V30 25 H 6.419816 1.655150 -12.729680 0
M  V30 26 H 8.064969 2.234595 -12.385140 0
M  V30 27 H 5.772656 5.778457 -10.562131 0
M  V30 28 H 6.842150 5.313100 -15.403675 0
M  V30 29 H 5.852647 0.713550 -17.458175 0
M  V30 30 H 4.572904 -3.336689 -17.185177 0
M  V30 31 H 6.205763 -3.140669 -17.795979 0
M  V30 32 H 5.775409 -2.563173 -16.183865 0
M  V30 33 H 9.700445 -0.039297 -17.186881 0
M  V30 34 H 8.493407 1.379243 -17.137265 0
M  V30 35 H 8.185269 -0.007398 -13.350654 0
M  V30 36 H 8.959598 1.187195 -14.345541 0
M  V30 37 H 6.663634 2.326540 -19.429145 0
M  V30 38 H 5.809151 1.857269 -20.893535 0
M  V30 39 H 4.935596 1.989916 -19.370321 0
M  V30 40 H 6.750704 1.315910 -15.684146 0
M  V30 41 H 6.263268 -0.150334 -14.856136 0
M  V30 42 H 7.869524 -1.619003 -17.856740 0
M  V30 43 H 7.105598 -0.117868 -20.015581 0
M  V30 44 H 8.379714 -1.231714 -15.732153 0
M  V30 45 H 4.206289 -0.866442 -17.157270 0
M  V30 46 H 4.881107 -0.672590 -20.970324 0
M  V30 END ATOM
M  V30 BEGIN BOND
M  V30 1 1 6 2
M  V30 2 2 6 3
M  V30 3 2 9 2
M  V30 4 1 9 5
M  V30 5 1 9 7
M  V30 6 2 10 1
M  V30 7 1 12 1
M  V30 8 1 12 8
M  V30 9 1 13 3
M  V30 10 2 13 7
M  V30 11 1 14 12
M  V30 12 1 15 11
M  V30 13 1 16 4
M  V30 14 1 16 13
M  V30 15 1 17 4
M  V30 16 1 18 2
M  V30 17 1 20 11
M  V30 18 1 20 17
M  V30 19 1 21 8
M  V30 20 1 21 11
M  V30 21 1 21 15
M  V30 22 1 22 8
M  V30 23 1 22 10
M  V30 24 1 22 19
M  V30 25 1 23 1
M  V30 26 1 24 3
M  V30 27 1 25 4
M  V30 28 1 26 4
M  V30 29 1 27 6
M  V30 30 1 28 7
M  V30 31 1 8 29 CFG=1
M  V30 32 1 30 14
M  V30 33 1 31 14
M  V30 34 1 32 14
M  V30 35 1 33 15
M  V30 36 1 34 15
M  V30 37 1 35 17
M  V30 38 1 36 17
M  V30 39 1 37 19
M  V30 40 1 38 19
M  V30 41 1 39 19
M  V30 42 1 40 20
M  V30 43 1 41 20
M  V30 44 1 21 42 CFG=3
M  V30 45 1 22 43 CFG=3
M  V30 46 1 11 44 CFG=1
M  V30 47 1 12 45 CFG=1
M  V30 48 1 46 10
M  V30 END BOND
M  V30 END CTAB
M  END
>  <i_epik_Tot_Q>  (1) 
2

>  <i_epik_Tot_abs_Q>  (1) 
2

>  <i_i_glide_confnum>  (1) 
17

>  <i_i_glide_lignum>  (1) 
149

>  <i_i_glide_posenum>  (1) 
100

>  <i_i_glide_rotatable_bonds>  (1) 
6

>  <i_lp_mmshare_version>  (1) 
72125

>  <i_m_source_file_index>  (1) 
84

>  <i_f3d_flags>  (1) 
0

>  <num_sample>  (1) 
100

>  <b_lp_Chiralities_Consistent>  (1) 
1

>  <r_epik_Charging_Adjusted_Penalty>  (1) 
1.5610925274032894

>  <r_epik_Ionization_Penalty>  (1) 
5.6947270193771686

>  <r_epik_Ionization_Penalty_Charging>  (1) 
0.86989266313289404

>  <r_epik_Ionization_Penalty_Neutral>  (1) 
4.824834356244275

>  <r_epik_State_Penalty>  (1) 
0.69119986427039537

>  <r_glide_ring_energy>  (1) 
0

>  <r_i_docking_score>  (1) 
-3.995202533552209

>  <r_i_glide_ecoul>  (1) 
-7.7584764633592451

>  <r_i_glide_eff_state_penalty>  (1) 
0.69119986427039537

>  <r_i_glide_einternal>  (1) 
5.701401142083288

>  <r_i_glide_emodel>  (1) 
-42.741597709125635

>  <r_i_glide_emodel_strain>  (1) 
0.31837273927902032

>  <r_i_glide_energy>  (1) 
-30.758859465409937

>  <r_i_glide_erotb>  (1) 
0.96167990521069524

>  <r_i_glide_esite>  (1) 
-0.10279217662335993

>  <r_i_glide_evdw>  (1) 
-23.000383002050693

>  <r_i_glide_gscore>  (1) 
-4.6864023978226044

>  <r_i_glide_gscore_strain>  (1) 
0

>  <r_i_glide_hbond>  (1) 
0

>  <r_i_glide_ligand_efficiency>  (1) 
-0.18160011516146404

>  <r_i_glide_ligand_efficiency_ln>  (1) 
-0.97657322775337307

>  <r_i_glide_ligand_efficiency_sa>  (1) 
-0.50885066513397004

>  <r_i_glide_lipo>  (1) 
-1.5114393572959888

>  <r_i_glide_metal>  (1) 
-0

>  <r_i_glide_rewards>  (1) 
-1.7200601495075294

>  <r_lp_Energy>  (1) 
41.591741999999996

>  <r_lp_tautomer_probability>  (1) 
1

>  <s_epik_Chemistry_Notes>  (1) 
This compound has an imine and may undergo hydrolysis.

>  <s_epik_cmdline>  (1) 
J2VwaWtfcHl0aG9uJywgJy1waHQnLCAnMS4wJywgJy1waCcsICc3LjQnLCAnLXRuJywgJzgnLCAnLW1hJywgJzUwMCcsICctaW1hZScsICc8aW5maWxlLm1hZT4nLCAnLW9tYWUnLCAnPG91dGZpbGUubWFlPic=

>  <s_epik_input>  (1) 
W0NIM11bQ0BASF0xTj1bQ0hdW0NAQEhdKFtDSDNdKVtDQEhdMVtDQEhdMltDSDJdTjJbQ0gyXVtDSDJdW0NIMl1PYyhbY0hdYzNGKVtjSF1bY0hdYzNG

>  <s_glide_docking_method>  (1) 
confgen

>  <s_i_glide_gridfile>  (1) 
gpcr_drd2_6luq_protein_autoprepared_prepared

>  <s_lp_Force_Field>  (1) 
S-OPLS

>  <s_lp_Variant>  (1) 
DiffSBDD_83-3

>  <s_m_source_file>  (1) 
generated_generic_title2_ligand_DiffSBDD_2026-06-23_prepared.sdf

>  <GenAI_Model>  (1) 
DiffSBDD

>  <Protein>  (1) 
generic_title2

$$$$
DiffSBDD_83
     RDKit          3D

  0  0  0  0  0  0  0  0  0  0999 V3000
M  V30 BEGIN CTAB
M  V30 COUNTS 44 46 0 0 1
M  V30 BEGIN ATOM
M  V30 1 C 6.205497 6.556195 -16.122231 0
M  V30 2 C 11.844951 8.791962 -7.184001 0
M  V30 3 C 11.412497 7.818656 -9.376229 0
M  V30 4 C 8.593786 5.437384 -9.136907 0
M  V30 5 F 10.430999 8.223982 -5.343164 0
M  V30 6 C 12.176537 8.654704 -8.544599 0
M  V30 7 C 9.978798 7.252339 -7.481013 0
M  V30 8 C 7.414459 5.430689 -14.513264 0 CFG=1
M  V30 9 C 10.746889 8.092014 -6.652612 0
M  V30 10 N 6.628997 5.591461 -16.807565 0
M  V30 11 N 6.638149 4.388702 -12.221114 0
M  V30 12 C 6.703201 6.781464 -14.736837 0 CFG=2
M  V30 13 C 10.314924 7.111343 -8.852720 0
M  V30 14 C 5.620875 7.190306 -13.728447 0
M  V30 15 C 7.350007 3.334376 -12.931360 0
M  V30 16 O 9.588135 6.289445 -9.686141 0
M  V30 17 C 8.033838 4.546781 -10.240879 0
M  V30 18 F 12.585608 9.597270 -6.385731 0
M  V30 19 C 8.993366 4.963853 -16.518383 0
M  V30 20 C 7.537761 5.281651 -11.490756 0
M  V30 21 C 6.619314 4.416720 -13.681383 0 CFG=2
M  V30 22 C 7.563335 4.863705 -15.962242 0 CFG=1
M  V30 23 H 5.468051 7.272041 -16.495269 0
M  V30 24 H 11.670954 7.714909 -10.419942 0
M  V30 25 H 7.776496 5.990236 -8.682959 0
M  V30 26 H 9.027764 4.804052 -8.361458 0
M  V30 27 H 13.020326 9.190255 -8.951394 0
M  V30 28 H 9.137321 6.720177 -7.064394 0
M  V30 29 H 8.404200 5.583161 -14.088283 0
M  V30 30 H 4.985261 7.988243 -14.116001 0
M  V30 31 H 4.974333 6.357320 -13.473790 0
M  V30 32 H 6.069416 7.546798 -12.801285 0
M  V30 33 H 6.904833 2.341523 -12.926870 0
M  V30 34 H 8.438712 3.352529 -12.938063 0
M  V30 35 H 7.206877 3.990323 -9.801653 0
M  V30 36 H 8.806157 3.841856 -10.546150 0
M  V30 37 H 9.692201 4.407544 -15.893165 0
M  V30 38 H 9.053631 4.551167 -17.526040 0
M  V30 39 H 9.347080 5.989614 -16.562387 0
M  V30 40 H 8.396595 5.633183 -12.055805 0
M  V30 41 H 6.969608 6.162801 -11.191200 0
M  V30 42 H 5.672799 4.128691 -14.132796 0
M  V30 43 H 7.293098 3.805991 -15.978357 0
M  V30 44 H 7.444519 7.578863 -14.784687 0
M  V30 END ATOM
M  V30 BEGIN BOND
M  V30 1 1 6 2
M  V30 2 2 6 3
M  V30 3 2 9 2
M  V30 4 1 9 5
M  V30 5 1 9 7
M  V30 6 2 10 1
M  V30 7 1 12 1
M  V30 8 1 12 8
M  V30 9 1 13 3
M  V30 10 2 13 7
M  V30 11 1 14 12
M  V30 12 1 15 11
M  V30 13 1 16 4
M  V30 14 1 16 13
M  V30 15 1 17 4
M  V30 16 1 18 2
M  V30 17 1 20 11
M  V30 18 1 20 17
M  V30 19 1 21 8
M  V30 20 1 21 11
M  V30 21 1 21 15
M  V30 22 1 22 8
M  V30 23 1 22 10
M  V30 24 1 22 19
M  V30 25 1 23 1
M  V30 26 1 24 3
M  V30 27 1 25 4
M  V30 28 1 26 4
M  V30 29 1 27 6
M  V30 30 1 28 7
M  V30 31 1 8 29 CFG=1
M  V30 32 1 30 14
M  V30 33 1 31 14
M  V30 34 1 32 14
M  V30 35 1 33 15
M  V30 36 1 34 15
M  V30 37 1 35 17
M  V30 38 1 36 17
M  V30 39 1 37 19
M  V30 40 1 38 19
M  V30 41 1 39 19
M  V30 42 1 40 20
M  V30 43 1 41 20
M  V30 44 1 21 42 CFG=3
M  V30 45 1 22 43 CFG=1
M  V30 46 1 12 44 CFG=3
M  V30 END BOND
M  V30 END CTAB
M  END
>  <i_epik_Tot_Q>  (1) 
0

>  <i_epik_Tot_abs_Q>  (1) 
0

>  <i_i_glide_confnum>  (1) 
92

>  <i_i_glide_lignum>  (1) 
151

>  <i_i_glide_posenum>  (1) 
349

>  <i_i_glide_rotatable_bonds>  (1) 
6

>  <i_lp_mmshare_version>  (1) 
72125

>  <i_m_source_file_index>  (1) 
84

>  <i_f3d_flags>  (1) 
0

>  <num_sample>  (1) 
100

>  <b_lp_Chiralities_Consistent>  (1) 
1

>  <r_epik_Charging_Adjusted_Penalty>  (1) 
1.2980487057549497

>  <r_epik_Ionization_Penalty>  (1) 
3.173295616345865

>  <r_epik_Ionization_Penalty_Charging>  (1) 
0

>  <r_epik_Ionization_Penalty_Neutral>  (1) 
3.173295616345865

>  <r_epik_State_Penalty>  (1) 
1.2980487057549497

>  <r_glide_ring_energy>  (1) 
0

>  <r_i_docking_score>  (1) 
-3.9871061376692878

>  <r_i_glide_ecoul>  (1) 
-1.5738519779814766

>  <r_i_glide_eff_state_penalty>  (1) 
1.2980487057549497

>  <r_i_glide_einternal>  (1) 
7.1223483581831353

>  <r_i_glide_emodel>  (1) 
-34.484057544741937

>  <r_i_glide_emodel_strain>  (1) 
1.5749742683830448

>  <r_i_glide_energy>  (1) 
-30.019594526882898

>  <r_i_glide_erotb>  (1) 
0.9727450720595302

>  <r_i_glide_esite>  (1) 
0

>  <r_i_glide_evdw>  (1) 
-28.445742548901421

>  <r_i_glide_gscore>  (1) 
-5.2851548434242375

>  <r_i_glide_gscore_strain>  (1) 
0

>  <r_i_glide_hbond>  (1) 
0

>  <r_i_glide_ligand_efficiency>  (1) 
-0.18123209716678582

>  <r_i_glide_ligand_efficiency_ln>  (1) 
-0.97459417327637177

>  <r_i_glide_ligand_efficiency_sa>  (1) 
-0.50781946423849267

>  <r_i_glide_lipo>  (1) 
-1.7465644911887883

>  <r_i_glide_metal>  (1) 
-0

>  <r_i_glide_rewards>  (1) 
-2.8529705001526868

>  <r_lp_Energy>  (1) 
21.746376999999999

>  <r_lp_tautomer_probability>  (1) 
0.99998600000000004

>  <s_epik_Chemistry_Notes>  (1) 
This compound has an imine and may undergo hydrolysis.

>  <s_epik_cmdline>  (1) 
J2VwaWtfcHl0aG9uJywgJy1waHQnLCAnMS4wJywgJy1waCcsICc3LjQnLCAnLXRuJywgJzgnLCAnLW1hJywgJzUwMCcsICctaW1hZScsICc8aW5maWxlLm1hZT4nLCAnLW9tYWUnLCAnPG91dGZpbGUubWFlPic=

>  <s_epik_input>  (1) 
W0NIM11bQ0BASF0xTj1bQ0hdW0NAQEhdKFtDSDNdKVtDQEhdMVtDQEhdMltDSDJdTjJbQ0gyXVtDSDJdW0NIMl1PYyhbY0hdYzNGKVtjSF1bY0hdYzNG

>  <s_glide_docking_method>  (1) 
confgen

>  <s_i_glide_gridfile>  (1) 
gpcr_drd2_6luq_protein_autoprepared_prepared

>  <s_lp_Force_Field>  (1) 
S-OPLS

>  <s_lp_Variant>  (1) 
DiffSBDD_83-5

>  <s_m_source_file>  (1) 
generated_generic_title2_ligand_DiffSBDD_2026-06-23_prepared.sdf

>  <GenAI_Model>  (1) 
DiffSBDD

>  <Protein>  (1) 
generic_title2

$$$$
DiffSBDD_8
     RDKit          3D

  0  0  0  0  0  0  0  0  0  0999 V3000
M  V30 BEGIN CTAB
M  V30 COUNTS 61 63 0 0 1
M  V30 BEGIN ATOM
M  V30 1 C 9.298750 4.241766 -11.098707 0
M  V30 2 O 10.606656 7.190211 -12.134093 0
M  V30 3 C 6.430240 -0.074952 -16.019967 0
M  V30 4 N 8.578725 7.963872 -11.585024 0
M  V30 5 C 8.728253 4.191003 -16.375927 0 CFG=2
M  V30 6 C 7.148432 2.257113 -14.591979 0
M  V30 7 N 9.375447 7.438863 -8.843448 0 CHG=1
M  V30 8 C 9.362097 5.433074 -19.938530 0
M  V30 9 C 8.269385 3.233801 -19.293578 0
M  V30 10 O 10.571183 3.938533 -17.764819 0
M  V30 11 C 7.406569 0.790862 -16.539755 0
M  V30 12 C 9.398889 6.947470 -19.709301 0
M  V30 13 O 8.746447 2.779969 -16.387339 0
M  V30 14 S 6.827156 3.590236 -12.136032 0
M  V30 15 C 7.339501 4.775881 -16.069283 0
M  V30 16 C 7.523474 3.528435 -13.818614 0 CFG=2
M  V30 17 N 7.940984 4.656851 -11.417059 0
M  V30 18 F 6.078661 -1.186536 -16.707965 0
M  V30 19 C 11.666607 4.732752 -17.339977 0
M  V30 20 C 7.683926 5.069375 -10.054945 0
M  V30 21 C 7.112905 4.811477 -14.556862 0
M  V30 22 C 9.201877 5.201183 -9.898274 0
M  V30 23 C 8.608348 4.665592 -18.830874 0 CFG=1
M  V30 24 N 9.368334 4.715974 -17.569218 0
M  V30 25 C 9.700346 7.285101 -11.314767 0
M  V30 26 C 5.819270 0.209599 -14.789176 0
M  V30 27 C 6.175408 1.362617 -14.072025 0
M  V30 28 C 7.771603 1.959824 -15.841358 0
M  V30 29 C 9.861590 6.600702 -9.945800 0 CFG=1
M  V30 30 H 9.375365 3.190435 -10.818203 0
M  V30 31 H 10.034099 4.512248 -11.856857 0
M  V30 32 H 8.468660 8.413094 -12.481425 0
M  V30 33 H 7.817971 7.990223 -10.901184 0
M  V30 34 H 9.397846 4.466569 -15.560920 0
M  V30 35 H 9.845854 8.330547 -8.852317 0
M  V30 36 H 8.367436 7.590303 -8.995935 0
M  V30 37 H 10.375064 5.047573 -20.057652 0
M  V30 38 H 8.866142 5.258037 -20.893737 0
M  V30 39 H 7.782932 3.246794 -20.268818 0
M  V30 40 H 9.156869 2.607055 -19.379773 0
M  V30 41 H 7.571497 2.749446 -18.614301 0
M  V30 42 H 7.877543 0.561279 -17.483944 0
M  V30 43 H 9.901938 7.455698 -20.532242 0
M  V30 44 H 8.391412 7.356178 -19.630886 0
M  V30 45 H 9.935318 7.190152 -18.794221 0
M  V30 46 H 7.299363 5.802028 -16.437111 0
M  V30 47 H 6.575664 4.222999 -16.609254 0
M  V30 48 H 8.605523 3.498353 -13.704179 0
M  V30 49 H 12.593872 4.182349 -17.498572 0
M  V30 50 H 11.728590 5.662416 -17.906445 0
M  V30 51 H 11.602179 4.971823 -16.277576 0
M  V30 52 H 7.109771 5.988524 -10.012419 0
M  V30 53 H 7.241573 4.276915 -9.449315 0
M  V30 54 H 7.642514 5.659072 -14.118907 0
M  V30 55 H 6.052409 5.002244 -14.389521 0
M  V30 56 H 9.509846 4.667500 -8.998079 0
M  V30 57 H 7.662267 5.184461 -18.674949 0
M  V30 58 H 5.070469 -0.457332 -14.392853 0
M  V30 59 H 5.690868 1.563016 -13.133015 0
M  V30 60 H 10.926573 6.496527 -9.750420 0
M  V30 61 H 9.506202 6.975313 -7.957517 0
M  V30 END ATOM
M  V30 BEGIN BOND
M  V30 1 2 11 3
M  V30 2 1 12 8
M  V30 3 1 13 5
M  V30 4 1 15 5
M  V30 5 1 16 6
M  V30 6 1 16 14
M  V30 7 1 17 1
M  V30 8 1 17 14
M  V30 9 1 18 3
M  V30 10 1 19 10
M  V30 11 1 20 17
M  V30 12 1 21 15
M  V30 13 1 21 16
M  V30 14 1 22 1
M  V30 15 1 22 20
M  V30 16 1 23 8
M  V30 17 1 23 9
M  V30 18 1 24 5
M  V30 19 1 24 10
M  V30 20 1 24 23
M  V30 21 2 25 2
M  V30 22 1 25 4
M  V30 23 1 26 3
M  V30 24 1 27 6
M  V30 25 2 27 26
M  V30 26 2 28 6
M  V30 27 1 28 11
M  V30 28 1 28 13
M  V30 29 1 29 7
M  V30 30 1 29 22
M  V30 31 1 29 25
M  V30 32 1 30 1
M  V30 33 1 31 1
M  V30 34 1 32 4
M  V30 35 1 33 4
M  V30 36 1 5 34 CFG=1
M  V30 37 1 35 7
M  V30 38 1 36 7
M  V30 39 1 37 8
M  V30 40 1 38 8
M  V30 41 1 39 9
M  V30 42 1 40 9
M  V30 43 1 41 9
M  V30 44 1 42 11
M  V30 45 1 43 12
M  V30 46 1 44 12
M  V30 47 1 45 12
M  V30 48 1 46 15
M  V30 49 1 47 15
M  V30 50 1 16 48 CFG=1
M  V30 51 1 49 19
M  V30 52 1 50 19
M  V30 53 1 51 19
M  V30 54 1 52 20
M  V30 55 1 53 20
M  V30 56 1 54 21
M  V30 57 1 55 21
M  V30 58 1 56 22
M  V30 59 1 23 57 CFG=1
M  V30 60 1 58 26
M  V30 61 1 59 27
M  V30 62 1 29 60 CFG=1
M  V30 63 1 61 7
M  V30 END BOND
M  V30 END CTAB
M  END
>  <i_epik_Tot_Q>  (1) 
1

>  <i_epik_Tot_abs_Q>  (1) 
1

>  <i_i_glide_confnum>  (1) 
514

>  <i_i_glide_lignum>  (1) 
15

>  <i_i_glide_posenum>  (1) 
269

>  <i_i_glide_rotatable_bonds>  (1) 
8

>  <i_lp_mmshare_version>  (1) 
72125

>  <i_m_source_file_index>  (1) 
9

>  <i_f3d_flags>  (1) 
0

>  <num_sample>  (1) 
100

>  <b_lp_Chiralities_Consistent>  (1) 
1

>  <r_epik_Charging_Adjusted_Penalty>  (1) 
1.6197365423892824

>  <r_epik_Ionization_Penalty>  (1) 
0.73483714514200482

>  <r_epik_Ionization_Penalty_Charging>  (1) 
0.26301760809738622

>  <r_epik_Ionization_Penalty_Neutral>  (1) 
0.47181953704461854

>  <r_epik_State_Penalty>  (1) 
1.3567189342918962

>  <r_glide_ring_energy>  (1) 
2.1725327972353821

>  <r_i_docking_score>  (1) 
-3.9845497948349378

>  <r_i_glide_ecoul>  (1) 
-12.159486844223707

>  <r_i_glide_eff_state_penalty>  (1) 
1.3567189342918962

>  <r_i_glide_einternal>  (1) 
11.53343833232957

>  <r_i_glide_emodel>  (1) 
-44.175609101978807

>  <r_i_glide_emodel_strain>  (1) 
0.28799315946410076

>  <r_i_glide_energy>  (1) 
-36.258510582625419

>  <r_i_glide_erotb>  (1) 
0.54307168116637361

>  <r_i_glide_esite>  (1) 
-0.26039341460539961

>  <r_i_glide_evdw>  (1) 
-24.099023738401716

>  <r_i_glide_gscore>  (1) 
-5.3412687291268339

>  <r_i_glide_gscore_strain>  (1) 
0

>  <r_i_glide_hbond>  (1) 
-0.3423729329654126

>  <r_i_glide_ligand_efficiency>  (1) 
-0.13739826878741165

>  <r_i_glide_ligand_efficiency_ln>  (1) 
-0.91236086355232726

>  <r_i_glide_ligand_efficiency_sa>  (1) 
-0.42213101301567146

>  <r_i_glide_lipo>  (1) 
-1.366207232225829

>  <r_i_glide_metal>  (1) 
-0

>  <r_i_glide_rewards>  (1) 
-0.88649261694292325

>  <r_lp_Energy>  (1) 
41.059792999999999

>  <s_epik_Chemistry_Notes>  (1) 
This compound contains an acetal/aminal-like group ( X-CH(R)-Y where X, Y are N, S, or O) that may be acid/base labile, releasing an aldehyde. This compound has a N-S or N-O group and may undergo hydrolysis at high or low pH.

>  <s_epik_cmdline>  (1) 
J2VwaWtfcHl0aG9uJywgJy1waHQnLCAnMS4wJywgJy1waCcsICc3LjQnLCAnLXRuJywgJzgnLCAnLW1hJywgJzUwMCcsICctaW1hZScsICc8aW5maWxlLm1hZT4nLCAnLW9tYWUnLCAnPG91dGZpbGUubWFlPic=

>  <s_epik_input>  (1) 
Tz1DKFtOSDJdKVtDQEBIXShbTkgyXSlbQ0hdKFtDSDJdMSlbQ0gyXU4xU1tDQEBIXTJbQ0gyXVtDSDJdW0NASF0oTihPW0NIM10pW0NASF0oW0NIM10pW0NIMl1bQ0gzXSlPYyhjMjMpW2NIXWMoRilbY0hdW2NIXTM=

>  <s_glide_docking_method>  (1) 
confgen

>  <s_i_glide_gridfile>  (1) 
gpcr_drd2_6luq_protein_autoprepared_prepared

>  <s_lp_Force_Field>  (1) 
S-OPLS

>  <s_lp_Variant>  (1) 
DiffSBDD_8-5

>  <s_m_source_file>  (1) 
generated_generic_title2_ligand_DiffSBDD_2026-06-23_prepared.sdf

>  <GenAI_Model>  (1) 
DiffSBDD

>  <Protein>  (1) 
generic_title2

$$$$
DiffSBDD_58
     RDKit          3D

  0  0  0  0  0  0  0  0  0  0999 V3000
M  V30 BEGIN CTAB
M  V30 COUNTS 61 64 0 0 1
M  V30 BEGIN ATOM
M  V30 1 C 6.430683 5.376936 -12.343857 0
M  V30 2 C 6.932780 4.770986 -15.577001 0
M  V30 3 O 8.975437 3.190241 -12.385030 0
M  V30 4 F 6.175251 6.684539 -12.316972 0
M  V30 5 F 5.379677 4.751038 -12.874870 0
M  V30 6 F 6.570199 4.944837 -11.090834 0
M  V30 7 C 7.733404 5.115429 -13.139988 0 CFG=1
M  V30 8 C 14.249009 5.342912 -20.658982 0
M  V30 9 C 13.897949 6.504581 -18.585576 0
M  V30 10 C 15.893018 4.983512 -18.023848 0
M  V30 11 C 13.241308 5.638078 -19.604497 0 CFG=2
M  V30 12 C 9.655180 3.987705 -16.888666 0 CFG=2
M  V30 13 C 15.704179 3.952153 -19.127933 0
M  V30 14 C 7.391659 3.290013 -15.596923 0 CFG=1
M  V30 15 C 8.119359 3.631368 -13.148145 0
M  V30 16 O 16.771966 4.790228 -17.184925 0
M  V30 17 C 8.590929 2.905114 -16.532837 0 CFG=1
M  V30 18 C 7.740650 1.227114 -13.998626 0
M  V30 19 C 7.379718 2.721201 -14.143666 0 CFG=2
M  V30 20 C 10.437262 2.544849 -18.857988 0
M  V30 21 C 11.588528 4.708280 -18.094606 0 CFG=1
M  V30 22 O 12.593959 4.474285 -19.077686 0
M  V30 23 C 14.995360 4.126400 -20.264159 0
M  V30 24 C 10.450283 5.627784 -18.555459 0
M  V30 25 C 9.214350 5.174378 -17.770216 0
M  V30 26 C 15.041625 6.242910 -17.908152 0
M  V30 27 C 7.705626 5.662983 -14.584087 0
M  V30 28 C 9.396801 1.484659 -18.472105 0
M  V30 29 C 10.868760 3.423054 -17.656102 0 CFG=1
M  V30 30 C 8.169847 2.117623 -17.792637 0
M  V30 31 H 6.901811 5.194743 -16.577335 0
M  V30 32 H 5.889213 4.790281 -15.265214 0
M  V30 33 H 8.529670 5.641623 -12.612405 0
M  V30 34 H 14.921848 6.176716 -20.867630 0
M  V30 35 H 13.733762 5.117916 -21.593656 0
M  V30 36 H 13.389242 7.436114 -18.381204 0
M  V30 37 H 12.488171 6.264590 -20.083148 0
M  V30 38 H 10.048747 4.390207 -15.954853 0
M  V30 39 H 16.217804 3.012868 -18.991793 0
M  V30 40 H 6.575396 2.755191 -16.060747 0
M  V30 41 H 9.134884 2.145807 -15.985028 0
M  V30 42 H 7.437054 0.852004 -13.020334 0
M  V30 43 H 7.231194 0.622628 -14.749372 0
M  V30 44 H 8.810421 1.043747 -14.085750 0
M  V30 45 H 6.338879 2.777065 -13.826611 0
M  V30 46 H 11.313569 2.061899 -19.291236 0
M  V30 47 H 10.016154 3.160505 -19.652654 0
M  V30 48 H 12.054364 5.142533 -17.208151 0
M  V30 49 H 14.960020 3.312915 -20.974135 0
M  V30 50 H 10.688850 6.677434 -18.385063 0
M  V30 51 H 10.264099 5.506849 -19.623287 0
M  V30 52 H 8.837692 5.990227 -17.166969 0
M  V30 53 H 8.424117 4.892367 -18.465269 0
M  V30 54 H 15.376047 6.971766 -17.185099 0
M  V30 55 H 8.731781 5.796005 -14.914838 0
M  V30 56 H 7.275852 6.664914 -14.591706 0
M  V30 57 H 9.852253 0.753003 -17.803195 0
M  V30 58 H 9.084141 0.934763 -19.360344 0
M  V30 59 H 11.503258 2.833623 -16.992972 0
M  V30 60 H 7.479835 1.316692 -17.523518 0
M  V30 61 H 7.633401 2.759317 -18.491291 0
M  V30 END ATOM
M  V30 BEGIN BOND
M  V30 1 1 4 1
M  V30 2 1 5 1
M  V30 3 1 6 1
M  V30 4 1 7 1
M  V30 5 1 11 8
M  V30 6 1 11 9
M  V30 7 1 13 10
M  V30 8 1 14 2
M  V30 9 2 15 3
M  V30 10 1 15 7
M  V30 11 2 16 10
M  V30 12 1 17 12
M  V30 13 1 17 14
M  V30 14 1 19 14
M  V30 15 1 19 15
M  V30 16 1 19 18
M  V30 17 1 22 11
M  V30 18 1 22 21
M  V30 19 1 23 8
M  V30 20 2 23 13
M  V30 21 1 24 21
M  V30 22 1 25 12
M  V30 23 1 25 24
M  V30 24 2 26 9
M  V30 25 1 26 10
M  V30 26 1 27 2
M  V30 27 1 27 7
M  V30 28 1 28 20
M  V30 29 1 29 12
M  V30 30 1 29 20
M  V30 31 1 29 21
M  V30 32 1 30 17
M  V30 33 1 30 28
M  V30 34 1 31 2
M  V30 35 1 32 2
M  V30 36 1 7 33 CFG=1
M  V30 37 1 34 8
M  V30 38 1 35 8
M  V30 39 1 36 9
M  V30 40 1 11 37 CFG=3
M  V30 41 1 12 38 CFG=1
M  V30 42 1 39 13
M  V30 43 1 14 40 CFG=3
M  V30 44 1 17 41 CFG=1
M  V30 45 1 42 18
M  V30 46 1 43 18
M  V30 47 1 44 18
M  V30 48 1 19 45 CFG=1
M  V30 49 1 46 20
M  V30 50 1 47 20
M  V30 51 1 21 48 CFG=1
M  V30 52 1 49 23
M  V30 53 1 50 24
M  V30 54 1 51 24
M  V30 55 1 52 25
M  V30 56 1 53 25
M  V30 57 1 54 26
M  V30 58 1 55 27
M  V30 59 1 56 27
M  V30 60 1 57 28
M  V30 61 1 58 28
M  V30 62 1 29 59 CFG=1
M  V30 63 1 60 30
M  V30 64 1 61 30
M  V30 END BOND
M  V30 END CTAB
M  END
>  <i_epik_Tot_Q>  (1) 
0

>  <i_epik_Tot_abs_Q>  (1) 
0

>  <i_i_glide_confnum>  (1) 
3

>  <i_i_glide_lignum>  (1) 
92

>  <i_i_glide_posenum>  (1) 
220

>  <i_i_glide_rotatable_bonds>  (1) 
4

>  <i_lp_mmshare_version>  (1) 
72125

>  <i_m_source_file_index>  (1) 
59

>  <i_f3d_flags>  (1) 
0

>  <num_sample>  (1) 
100

>  <b_lp_Chiralities_Consistent>  (1) 
1

>  <r_epik_Charging_Adjusted_Penalty>  (1) 
0

>  <r_epik_Ionization_Penalty>  (1) 
2.3521434305966632e-11

>  <r_epik_Ionization_Penalty_Charging>  (1) 
0

>  <r_epik_Ionization_Penalty_Neutral>  (1) 
2.3521434305966632e-11

>  <r_epik_State_Penalty>  (1) 
-0

>  <r_glide_ring_energy>  (1) 
2.0493742895280942

>  <r_i_docking_score>  (1) 
-3.9748140588870955

>  <r_i_glide_ecoul>  (1) 
-1.5114989515102377

>  <r_i_glide_eff_state_penalty>  (1) 
-0

>  <r_i_glide_einternal>  (1) 
17.719409226236998

>  <r_i_glide_emodel>  (1) 
-25.228091136285183

>  <r_i_glide_emodel_strain>  (1) 
0

>  <r_i_glide_energy>  (1) 
-27.3631444315367

>  <r_i_glide_erotb>  (1) 
0.33010280432778499

>  <r_i_glide_esite>  (1) 
-0.11094684001454452

>  <r_i_glide_evdw>  (1) 
-25.851645480026463

>  <r_i_glide_gscore>  (1) 
-3.9748140588870955

>  <r_i_glide_gscore_strain>  (1) 
0

>  <r_i_glide_hbond>  (1) 
-0.32000000000000001

>  <r_i_glide_ligand_efficiency>  (1) 
-0.1324938019629032

>  <r_i_glide_ligand_efficiency_ln>  (1) 
-0.90312106324710384

>  <r_i_glide_ligand_efficiency_sa>  (1) 
-0.41168904829654601

>  <r_i_glide_lipo>  (1) 
-1.1878719940412263

>  <r_i_glide_metal>  (1) 
-0

>  <r_i_glide_rewards>  (1) 
-1.1667909124312508

>  <r_lp_Energy>  (1) 
29.975919999999999

>  <r_lp_tautomer_probability>  (1) 
1

>  <s_epik_cmdline>  (1) 
J2VwaWtfcHl0aG9uJywgJy1waHQnLCAnMS4wJywgJy1waCcsICc3LjQnLCAnLXRuJywgJzgnLCAnLW1hJywgJzUwMCcsICctaW1hZScsICc8aW5maWxlLm1hZT4nLCAnLW9tYWUnLCAnPG91dGZpbGUubWFlPic=

>  <s_epik_input>  (1) 
RkMoRikoRilbQ0BIXTFDKD1PKVtDQEhdKFtDSDNdKVtDQEBIXShbQ0gyXVtDSDJdMSlbQ0BIXTJbQ0gyXVtDSDJdW0NIMl1bQ0BIXShbQ0BIXTIzKVtDQEhdKFtDSDJdW0NIMl0zKU9bQ0BASF0oW0NIXT1bQ0hdNClbQ0gyXVtDSF09W0NIXUM0PU8=

>  <s_glide_docking_method>  (1) 
confgen

>  <s_i_glide_gridfile>  (1) 
gpcr_drd2_6luq_protein_autoprepared_prepared

>  <s_lp_Force_Field>  (1) 
S-OPLS

>  <s_lp_Variant>  (1) 
DiffSBDD_58-1

>  <s_m_source_file>  (1) 
generated_generic_title2_ligand_DiffSBDD_2026-06-23_prepared.sdf

>  <GenAI_Model>  (1) 
DiffSBDD

>  <Protein>  (1) 
generic_title2

$$$$
DiffSBDD_93
     RDKit          3D

  0  0  0  0  0  0  0  0  0  0999 V3000
M  V30 BEGIN CTAB
M  V30 COUNTS 69 73 0 0 1
M  V30 BEGIN ATOM
M  V30 1 C 8.086002 5.324188 -12.284049 0 CFG=1
M  V30 2 C 7.697705 7.004656 -20.225441 0
M  V30 3 C 9.980038 8.020864 -8.786856 0
M  V30 4 O 6.068540 10.627875 -22.770054 0
M  V30 5 C 7.567125 3.244010 -13.735640 0
M  V30 6 C 7.898482 2.531420 -15.072225 0
M  V30 7 C 5.424771 8.636527 -20.682196 0
M  V30 8 C 6.850231 7.590142 -13.155719 0
M  V30 9 N 8.325979 4.508966 -13.510989 0 CFG=1 CHG=1
M  V30 10 C 5.362461 7.610944 -19.705592 0
M  V30 11 C 7.694370 8.033805 -21.184577 0
M  V30 12 C 8.978652 5.390001 -8.911210 0
M  V30 13 C 9.378026 5.259141 -11.435686 0 CFG=1
M  V30 14 C 6.867940 9.774763 -22.385202 0
M  V30 15 C 9.909214 7.353122 -10.028176 0
M  V30 16 C 5.415420 7.165375 -12.848787 0
M  V30 17 O 10.462404 5.592410 -12.282585 0
M  V30 18 C 7.927461 6.538935 -13.211966 0 CFG=2
M  V30 19 C 6.507515 6.788501 -19.462395 0
M  V30 20 C 6.620439 8.800225 -21.387065 0
M  V30 21 C 9.552388 7.375741 -7.613309 0
M  V30 22 N 8.131912 9.577038 -22.800525 0
M  V30 23 C 8.886935 8.417487 -22.097788 0
M  V30 24 C 7.693193 5.217953 -17.983138 0
M  V30 25 N 6.435217 5.783703 -18.477352 0
M  V30 26 C 8.083999 5.634721 -14.432081 0 CFG=2
M  V30 27 C 7.405613 4.465768 -16.659024 0 CFG=2
M  V30 28 C 9.414032 6.023402 -10.094075 0
M  V30 29 C 6.988167 5.419146 -15.496968 0
M  V30 30 O 10.323244 7.990204 -11.157161 0
M  V30 31 C 6.893305 4.861811 -11.430267 0
M  V30 32 C 8.438814 3.410651 -16.232080 0
M  V30 33 C 9.048009 6.066152 -7.676166 0
M  V30 34 H 8.578331 6.398945 -20.074080 0
M  V30 35 H 10.361030 9.030416 -8.736902 0
M  V30 36 H 6.492382 3.419420 -13.693922 0
M  V30 37 H 7.780921 2.560714 -12.913723 0
M  V30 38 H 8.575473 1.705495 -14.877793 0
M  V30 39 H 6.994725 2.026096 -15.413683 0
M  V30 40 H 4.574395 9.275394 -20.872636 0
M  V30 41 H 6.869803 8.019858 -14.153238 0
M  V30 42 H 7.147029 8.366943 -12.444979 0
M  V30 43 H 4.455055 7.458239 -19.140961 0
M  V30 44 H 8.595669 4.390120 -8.948658 0
M  V30 45 H 9.553426 4.213361 -11.178504 0
M  V30 46 H 4.741682 7.991006 -13.058384 0
M  V30 47 H 5.272373 6.933530 -11.795194 0
M  V30 48 H 5.097062 6.318228 -13.452716 0
M  V30 49 H 10.582801 6.533783 -12.192049 0
M  V30 50 H 8.843688 7.118726 -13.143955 0
M  V30 51 H 9.602928 7.889136 -6.663615 0
M  V30 52 H 8.576016 10.145624 -23.514220 0
M  V30 53 H 9.751431 8.767972 -21.533122 0
M  V30 54 H 9.156356 7.619385 -22.788482 0
M  V30 55 H 8.080994 4.523766 -18.731006 0
M  V30 56 H 8.445977 5.990709 -17.817601 0
M  V30 57 H 5.623127 5.741283 -17.879734 0
M  V30 58 H 9.010133 5.935552 -14.920731 0
M  V30 59 H 6.575470 3.826883 -16.915845 0
M  V30 60 H 6.062935 5.061946 -15.050601 0
M  V30 61 H 6.711320 6.388309 -15.910702 0
M  V30 62 H 10.658248 8.852116 -10.963605 0
M  V30 63 H 6.672293 5.591925 -10.651561 0
M  V30 64 H 7.104911 3.937437 -10.906614 0
M  V30 65 H 5.979650 4.714222 -12.001742 0
M  V30 66 H 9.394787 3.870552 -15.985141 0
M  V30 67 H 8.645697 2.759852 -17.084905 0
M  V30 68 H 8.711513 5.582042 -6.776322 0
M  V30 69 H 9.322192 4.320629 -13.514368 0
M  V30 END ATOM
M  V30 BEGIN BOND
M  V30 1 1 6 5
M  V30 2 1 9 1
M  V30 3 1 9 5
M  V30 4 2 10 7
M  V30 5 1 11 2
M  V30 6 1 13 1
M  V30 7 2 14 4
M  V30 8 2 15 3
M  V30 9 1 16 8
M  V30 10 1 17 13
M  V30 11 1 18 1
M  V30 12 1 18 8
M  V30 13 2 19 2
M  V30 14 1 19 10
M  V30 15 1 20 7
M  V30 16 2 20 11
M  V30 17 1 20 14
M  V30 18 1 21 3
M  V30 19 1 22 14
M  V30 20 1 23 11
M  V30 21 1 23 22
M  V30 22 1 25 19
M  V30 23 1 25 24
M  V30 24 1 26 9
M  V30 25 1 26 18
M  V30 26 1 27 24
M  V30 27 2 28 12
M  V30 28 1 28 13
M  V30 29 1 28 15
M  V30 30 1 29 26
M  V30 31 1 29 27
M  V30 32 1 30 15
M  V30 33 1 1 31 CFG=1
M  V30 34 1 32 6
M  V30 35 1 32 27
M  V30 36 1 33 12
M  V30 37 2 33 21
M  V30 38 1 34 2
M  V30 39 1 35 3
M  V30 40 1 36 5
M  V30 41 1 37 5
M  V30 42 1 38 6
M  V30 43 1 39 6
M  V30 44 1 40 7
M  V30 45 1 41 8
M  V30 46 1 42 8
M  V30 47 1 43 10
M  V30 48 1 44 12
M  V30 49 1 13 45 CFG=1
M  V30 50 1 46 16
M  V30 51 1 47 16
M  V30 52 1 48 16
M  V30 53 1 49 17
M  V30 54 1 18 50 CFG=1
M  V30 55 1 51 21
M  V30 56 1 52 22
M  V30 57 1 53 23
M  V30 58 1 54 23
M  V30 59 1 55 24
M  V30 60 1 56 24
M  V30 61 1 57 25
M  V30 62 1 26 58 CFG=3
M  V30 63 1 27 59 CFG=3
M  V30 64 1 60 29
M  V30 65 1 61 29
M  V30 66 1 62 30
M  V30 67 1 63 31
M  V30 68 1 64 31
M  V30 69 1 65 31
M  V30 70 1 66 32
M  V30 71 1 67 32
M  V30 72 1 68 33
M  V30 73 1 9 69 CFG=1
M  V30 END BOND
M  V30 END CTAB
M  END
>  <i_epik_Tot_Q>  (1) 
1

>  <i_epik_Tot_abs_Q>  (1) 
1

>  <i_i_glide_confnum>  (1) 
142

>  <i_i_glide_lignum>  (1) 
176

>  <i_i_glide_posenum>  (1) 
122

>  <i_i_glide_rotatable_bonds>  (1) 
8

>  <i_lp_mmshare_version>  (1) 
72125

>  <i_m_source_file_index>  (1) 
94

>  <i_f3d_flags>  (1) 
0

>  <num_sample>  (1) 
100

>  <b_lp_Chiralities_Consistent>  (1) 
1

>  <r_epik_Charging_Adjusted_Penalty>  (1) 
0.009895405337619817

>  <r_epik_Ionization_Penalty>  (1) 
0.010018489252536679

>  <r_epik_Ionization_Penalty_Charging>  (1) 
0.00060073207358730301

>  <r_epik_Ionization_Penalty_Neutral>  (1) 
0.0094177571789493767

>  <r_epik_State_Penalty>  (1) 
0.0092946732640325144

>  <r_glide_ring_energy>  (1) 
0

>  <r_i_docking_score>  (1) 
-3.9725367475958078

>  <r_i_glide_ecoul>  (1) 
-2.5886370626369515

>  <r_i_glide_eff_state_penalty>  (1) 
0.0092946732640325144

>  <r_i_glide_einternal>  (1) 
5.0943891915109081

>  <r_i_glide_emodel>  (1) 
-28.079308489991195

>  <r_i_glide_emodel_strain>  (1) 
0.97985445816880201

>  <r_i_glide_energy>  (1) 
-30.56946384091918

>  <r_i_glide_erotb>  (1) 
0.49373930985115227

>  <r_i_glide_esite>  (1) 
-0.056669724905349821

>  <r_i_glide_evdw>  (1) 
-27.980826778282228

>  <r_i_glide_gscore>  (1) 
-3.9818314208598404

>  <r_i_glide_gscore_strain>  (1) 
0

>  <r_i_glide_hbond>  (1) 
-0.02144968380130572

>  <r_i_glide_ligand_efficiency>  (1) 
-0.12037990144229721

>  <r_i_glide_ligand_efficiency_ln>  (1) 
-0.88347160397084146

>  <r_i_glide_ligand_efficiency_sa>  (1) 
-0.3861226665176824

>  <r_i_glide_lipo>  (1) 
-1.6712038980352188

>  <r_i_glide_metal>  (1) 
-0

>  <r_i_glide_rewards>  (1) 
-0.93891052565946453

>  <r_lp_Energy>  (1) 
50.168202999999998

>  <r_lp_tautomer_probability>  (1) 
0.99999999999736477

>  <s_epik_cmdline>  (1) 
J2VwaWtfcHl0aG9uJywgJy1waHQnLCAnMS4wJywgJy1waCcsICc3LjQnLCAnLXRuJywgJzgnLCAnLW1hJywgJzUwMCcsICctaW1hZScsICc8aW5maWxlLm1hZT4nLCAnLW9tYWUnLCAnPG91dGZpbGUubWFlPic=

>  <s_epik_input>  (1) 
W09IXWMxW2NIXVtjSF1bY0hdW2NIXWMxW0NASF0oW09IXSlbQ0BAXTIoW0NIM10pW0NASF0oW0NIMl1bQ0gzXSlbQ0BASF0oTjIzKVtDSDJdW0NASF0oW0NIMl1bQ0gyXVtDSDJdMylbQ0gyXVtOSF1jKFtjSF00KVtjSF1bY0hdYyhjNDUpQyg9TylbTkhdW0NIMl01

>  <s_glide_docking_method>  (1) 
confgen

>  <s_i_glide_gridfile>  (1) 
gpcr_drd2_6luq_protein_autoprepared_prepared

>  <s_lp_Force_Field>  (1) 
S-OPLS

>  <s_lp_Variant>  (1) 
DiffSBDD_93-1

>  <s_m_source_file>  (1) 
generated_generic_title2_ligand_DiffSBDD_2026-06-23_prepared.sdf

>  <GenAI_Model>  (1) 
DiffSBDD

>  <Protein>  (1) 
generic_title2

$$$$
DiffSBDD_30
     RDKit          3D

  0  0  0  0  0  0  0  0  0  0999 V3000
M  V30 BEGIN CTAB
M  V30 COUNTS 40 40 0 0 1
M  V30 BEGIN ATOM
M  V30 1 C 11.375173 8.453251 -5.142471 0
M  V30 2 C 10.470347 7.590246 -10.377123 0
M  V30 3 C 10.400665 7.185910 -7.951512 0
M  V30 4 N 5.387401 7.201106 -11.677610 0 CHG=1
M  V30 5 C 12.028203 9.340795 -4.271901 0
M  V30 6 C 5.564971 6.130712 -13.921287 0
M  V30 7 C 9.817852 8.226277 -6.983558 0
M  V30 8 N 9.775412 7.312866 -9.259753 0
M  V30 9 C 6.253483 6.404403 -12.577770 0 CFG=1
M  V30 10 O 11.689322 7.760914 -10.384945 0
M  V30 11 C 12.549823 8.879837 -3.049843 0
M  V30 12 C 11.252195 7.085619 -4.785971 0
M  V30 13 C 7.600142 7.112244 -12.808348 0
M  V30 14 C 9.669298 7.688678 -11.680592 0
M  V30 15 C 12.423434 7.525431 -2.694033 0
M  V30 16 C 11.775410 6.629262 -3.561597 0
M  V30 17 O 10.860622 8.933094 -6.326517 0
M  V30 18 N 8.367436 7.022904 -11.585026 0
M  V30 19 H 11.487396 7.281639 -7.993628 0
M  V30 20 H 10.204659 6.177122 -7.588580 0
M  V30 21 H 5.124296 8.065944 -12.125205 0
M  V30 22 H 4.555223 6.682453 -11.439548 0
M  V30 23 H 12.123022 10.381049 -4.540845 0
M  V30 24 H 6.199905 5.514196 -14.559683 0
M  V30 25 H 4.626823 5.590225 -13.801629 0
M  V30 26 H 5.371660 7.057479 -14.461793 0
M  V30 27 H 9.111957 7.778040 -6.282691 0
M  V30 28 H 9.240873 8.975010 -7.529039 0
M  V30 29 H 8.769732 7.191824 -9.317594 0
M  V30 30 H 6.433060 5.441248 -12.095288 0
M  V30 31 H 13.043752 9.568031 -2.384965 0
M  V30 32 H 10.755486 6.390469 -5.441995 0
M  V30 33 H 7.462161 8.151364 -13.106626 0
M  V30 34 H 8.159124 6.617457 -13.604714 0
M  V30 35 H 9.524349 8.740918 -11.927014 0
M  V30 36 H 10.256723 7.237687 -12.481529 0
M  V30 37 H 12.822995 7.173491 -1.754388 0
M  V30 38 H 11.678337 5.590223 -3.288258 0
M  V30 39 H 7.827063 7.423197 -10.815870 0
M  V30 40 H 5.902260 7.414430 -10.823053 0
M  V30 END ATOM
M  V30 BEGIN BOND
M  V30 1 2 5 1
M  V30 2 1 7 3
M  V30 3 1 8 2
M  V30 4 1 8 3
M  V30 5 1 9 4
M  V30 6 1 9 6
M  V30 7 2 10 2
M  V30 8 1 11 5
M  V30 9 1 12 1
M  V30 10 1 13 9
M  V30 11 1 14 2
M  V30 12 2 15 11
M  V30 13 2 16 12
M  V30 14 1 16 15
M  V30 15 1 17 1
M  V30 16 1 17 7
M  V30 17 1 18 13
M  V30 18 1 18 14
M  V30 19 1 19 3
M  V30 20 1 20 3
M  V30 21 1 21 4
M  V30 22 1 22 4
M  V30 23 1 23 5
M  V30 24 1 24 6
M  V30 25 1 25 6
M  V30 26 1 26 6
M  V30 27 1 27 7
M  V30 28 1 28 7
M  V30 29 1 29 8
M  V30 30 1 9 30 CFG=1
M  V30 31 1 31 11
M  V30 32 1 32 12
M  V30 33 1 33 13
M  V30 34 1 34 13
M  V30 35 1 35 14
M  V30 36 1 36 14
M  V30 37 1 37 15
M  V30 38 1 38 16
M  V30 39 1 39 18
M  V30 40 1 40 4
M  V30 END BOND
M  V30 END CTAB
M  END
>  <i_epik_Tot_Q>  (1) 
1

>  <i_epik_Tot_abs_Q>  (1) 
1

>  <i_i_glide_confnum>  (1) 
286

>  <i_i_glide_lignum>  (1) 
51

>  <i_i_glide_posenum>  (1) 
260

>  <i_i_glide_rotatable_bonds>  (1) 
9

>  <i_lp_mmshare_version>  (1) 
72125

>  <i_m_source_file_index>  (1) 
31

>  <i_f3d_flags>  (1) 
0

>  <num_sample>  (1) 
100

>  <b_lp_Chiralities_Consistent>  (1) 
1

>  <r_epik_Charging_Adjusted_Penalty>  (1) 
0.039337521643073213

>  <r_epik_Ionization_Penalty>  (1) 
0.013279431624003777

>  <r_epik_Ionization_Penalty_Charging>  (1) 
0.0075602006563197741

>  <r_epik_Ionization_Penalty_Neutral>  (1) 
0.0057192309676840029

>  <r_epik_State_Penalty>  (1) 
0.031777320986753441

>  <r_glide_ring_energy>  (1) 
0

>  <r_i_docking_score>  (1) 
-3.9677182265815181

>  <r_i_glide_ecoul>  (1) 
-12.514310947757185

>  <r_i_glide_eff_state_penalty>  (1) 
0.031777320986753441

>  <r_i_glide_einternal>  (1) 
7.9172623686436507

>  <r_i_glide_emodel>  (1) 
-50.323819215813707

>  <r_i_glide_emodel_strain>  (1) 
1.6599178002444379

>  <r_i_glide_energy>  (1) 
-41.624989023709048

>  <r_i_glide_erotb>  (1) 
3.8578777710225149

>  <r_i_glide_esite>  (1) 
-0.22167654382397375

>  <r_i_glide_evdw>  (1) 
-29.110678075951864

>  <r_i_glide_gscore>  (1) 
-3.9994955475682716

>  <r_i_glide_gscore_strain>  (1) 
0

>  <r_i_glide_hbond>  (1) 
-0.504

>  <r_i_glide_ligand_efficiency>  (1) 
-0.22042879036563989

>  <r_i_glide_ligand_efficiency_ln>  (1) 
-1.01988151094516

>  <r_i_glide_ligand_efficiency_sa>  (1) 
-0.57768685538662767

>  <r_i_glide_lipo>  (1) 
-1.827397618438285

>  <r_i_glide_metal>  (1) 
-0

>  <r_i_glide_rewards>  (1) 
-1.9716186103673574

>  <r_lp_Energy>  (1) 
19.421258999999999

>  <r_lp_tautomer_probability>  (1) 
1

>  <s_epik_cmdline>  (1) 
J2VwaWtfcHl0aG9uJywgJy1waHQnLCAnMS4wJywgJy1waCcsICc3LjQnLCAnLXRuJywgJzgnLCAnLW1hJywgJzUwMCcsICctaW1hZScsICc8aW5maWxlLm1hZT4nLCAnLW9tYWUnLCAnPG91dGZpbGUubWFlPic=

>  <s_epik_input>  (1) 
W2NIXTFbY0hdW2NIXVtjSF1bY0hdYzFPW0NIMl1bQ0gyXVtOSF1DKD1PKVtDSDJdW05IXVtDSDJdW0NAQEhdKFtOSDJdKVtDSDNd

>  <s_glide_docking_method>  (1) 
confgen

>  <s_i_glide_gridfile>  (1) 
gpcr_drd2_6luq_protein_autoprepared_prepared

>  <s_lp_Force_Field>  (1) 
S-OPLS

>  <s_lp_Variant>  (1) 
DiffSBDD_30-1

>  <s_m_source_file>  (1) 
generated_generic_title2_ligand_DiffSBDD_2026-06-23_prepared.sdf

>  <GenAI_Model>  (1) 
DiffSBDD

>  <Protein>  (1) 
generic_title2

$$$$
DiffSBDD_78
     RDKit          3D

  0  0  0  0  0  0  0  0  0  0999 V3000
M  V30 BEGIN CTAB
M  V30 COUNTS 81 85 0 0 1
M  V30 BEGIN ATOM
M  V30 1 C 10.245722 7.972086 -6.348561 0 CFG=2
M  V30 2 C 8.775648 8.389669 -6.458835 0
M  V30 3 C 5.748215 4.998146 -13.520434 0 CFG=1
M  V30 4 C 8.279357 5.259156 -14.573491 0 CFG=2
M  V30 5 C 11.156354 8.980767 -5.630043 0
M  V30 6 N 10.273734 5.590210 -16.097657 0 CHG=1
M  V30 7 C 7.904756 3.905930 -13.937329 0 CFG=1
M  V30 8 C 7.559007 5.108476 -11.728119 0 CFG=1
M  V30 9 N 10.792077 7.789736 -7.714079 0 CFG=1 CHG=1
M  V30 10 C 12.131767 8.409478 -7.774159 0
M  V30 11 N 8.399288 5.917747 -10.785609 0 CFG=2 CHG=1
M  V30 12 C 5.944536 7.092251 -12.117089 0
M  V30 13 C 9.802685 5.339746 -14.718091 0
M  V30 14 C 11.573052 5.057062 -18.020422 0
M  V30 15 O 7.677427 6.334526 -13.792214 0
M  V30 16 C 9.424143 6.795356 -11.406168 0
M  V30 17 C 12.105864 3.985424 -18.982679 0 CFG=1
M  V30 18 C 5.353698 3.603877 -13.095436 0
M  V30 19 C 6.726470 5.920761 -12.771021 0 CFG=2
M  V30 20 F 13.014327 3.248229 -18.336440 0
M  V30 21 C 12.138847 9.480918 -6.683117 0
M  V30 22 C 4.975564 6.670106 -10.979673 0
M  V30 23 O 9.808995 3.591087 -17.292594 0
M  V30 24 C 8.309300 3.953260 -12.444169 0
M  V30 25 C 10.938700 3.070158 -19.399962 0 CFG=1
M  V30 26 C 9.253103 5.943443 -8.436216 0
M  V30 27 C 10.892848 4.340378 -16.838077 0 CFG=2
M  V30 28 C 10.713618 6.406206 -8.245315 0
M  V30 29 C 8.939209 5.093320 -9.669391 0
M  V30 30 C 12.823645 4.612172 -20.188370 0
M  V30 31 C 10.197418 2.524156 -18.160528 0
M  V30 32 C 6.421407 3.800752 -14.146700 0 CFG=1
M  V30 33 F 10.069173 3.746142 -20.154938 0
M  V30 34 H 10.302970 7.034158 -5.790578 0
M  V30 35 H 8.344319 8.837010 -5.585103 0
M  V30 36 H 8.581667 9.065328 -7.291893 0
M  V30 37 H 8.175607 7.499393 -6.585644 0
M  V30 38 H 5.055747 5.521184 -14.175815 0
M  V30 39 H 7.842089 5.306870 -15.571730 0
M  V30 40 H 11.707937 8.469957 -4.842343 0
M  V30 41 H 10.609458 9.796972 -5.156915 0
M  V30 42 H 9.514571 5.968178 -16.646626 0
M  V30 43 H 8.383841 3.069243 -14.447094 0
M  V30 44 H 6.824486 4.652418 -11.065184 0
M  V30 45 H 12.896021 7.656612 -7.584998 0
M  V30 46 H 12.322787 8.836795 -8.761541 0
M  V30 47 H 5.371527 7.608336 -12.886558 0
M  V30 48 H 6.630010 7.841729 -11.719392 0
M  V30 49 H 10.278392 5.990169 -13.995623 0
M  V30 50 H 10.176334 4.390145 -14.422850 0
M  V30 51 H 10.857422 5.707017 -18.530767 0
M  V30 52 H 12.388494 5.680727 -17.645629 0
M  V30 53 H 10.249288 6.210346 -11.806062 0
M  V30 54 H 9.018830 7.437268 -12.187470 0
M  V30 55 H 9.844088 7.482810 -10.674672 0
M  V30 56 H 4.370010 3.276697 -13.427623 0
M  V30 57 H 5.658322 3.224667 -12.124769 0
M  V30 58 H 13.136479 9.671378 -6.283261 0
M  V30 59 H 11.775382 10.420405 -7.089493 0
M  V30 60 H 4.301910 7.488699 -10.726584 0
M  V30 61 H 5.487756 6.390023 -10.068678 0
M  V30 62 H 4.391316 5.782925 -11.185047 0
M  V30 63 H 8.075793 2.997391 -11.986832 0
M  V30 64 H 9.389504 4.057961 -12.346170 0
M  V30 65 H 11.298635 2.246432 -20.018907 0
M  V30 66 H 8.578549 6.789747 -8.504445 0
M  V30 67 H 8.953623 5.406187 -7.537912 0
M  V30 68 H 11.596240 3.777427 -16.221820 0
M  V30 69 H 11.248150 5.722804 -7.582550 0
M  V30 70 H 11.250134 6.392314 -9.187664 0
M  V30 71 H 8.165073 4.390431 -9.365719 0
M  V30 72 H 9.777604 4.482674 -9.989168 0
M  V30 73 H 12.150163 5.245785 -20.766878 0
M  V30 74 H 13.664548 5.229160 -19.868055 0
M  V30 75 H 13.214438 3.844706 -20.858761 0
M  V30 76 H 10.831090 1.821580 -17.613724 0
M  V30 77 H 9.309093 1.970929 -18.467977 0
M  V30 78 H 6.175788 3.589176 -15.184830 0
M  V30 79 H 10.219592 8.373409 -8.308842 0
M  V30 80 H 7.746461 6.563985 -10.338564 0
M  V30 81 H 10.987764 6.303655 -16.037777 0
M  V30 END ATOM
M  V30 BEGIN BOND
M  V30 1 1 2 1
M  V30 2 1 5 1
M  V30 3 1 7 4
M  V30 4 1 9 1
M  V30 5 1 10 9
M  V30 6 1 11 8
M  V30 7 1 13 4
M  V30 8 1 13 6
M  V30 9 1 15 4
M  V30 10 1 16 11
M  V30 11 1 17 14
M  V30 12 1 18 3
M  V30 13 1 19 3
M  V30 14 1 19 8
M  V30 15 1 19 12 CFG=1
M  V30 16 1 19 15
M  V30 17 1 17 20 CFG=1
M  V30 18 1 21 5
M  V30 19 1 21 10
M  V30 20 1 22 12
M  V30 21 1 24 7
M  V30 22 1 24 8
M  V30 23 1 25 17
M  V30 24 1 27 6
M  V30 25 1 27 14
M  V30 26 1 27 23
M  V30 27 1 28 9
M  V30 28 1 28 26
M  V30 29 1 29 11
M  V30 30 1 29 26
M  V30 31 1 30 17
M  V30 32 1 31 23
M  V30 33 1 31 25
M  V30 34 1 32 3
M  V30 35 1 32 7
M  V30 36 1 32 18
M  V30 37 1 33 25
M  V30 38 1 1 34 CFG=1
M  V30 39 1 35 2
M  V30 40 1 36 2
M  V30 41 1 37 2
M  V30 42 1 3 38 CFG=3
M  V30 43 1 4 39 CFG=3
M  V30 44 1 40 5
M  V30 45 1 41 5
M  V30 46 1 42 6
M  V30 47 1 7 43 CFG=3
M  V30 48 1 8 44 CFG=1
M  V30 49 1 45 10
M  V30 50 1 46 10
M  V30 51 1 47 12
M  V30 52 1 48 12
M  V30 53 1 49 13
M  V30 54 1 50 13
M  V30 55 1 51 14
M  V30 56 1 52 14
M  V30 57 1 53 16
M  V30 58 1 54 16
M  V30 59 1 55 16
M  V30 60 1 56 18
M  V30 61 1 57 18
M  V30 62 1 58 21
M  V30 63 1 59 21
M  V30 64 1 60 22
M  V30 65 1 61 22
M  V30 66 1 62 22
M  V30 67 1 63 24
M  V30 68 1 64 24
M  V30 69 1 25 65 CFG=3
M  V30 70 1 66 26
M  V30 71 1 67 26
M  V30 72 1 27 68 CFG=1
M  V30 73 1 69 28
M  V30 74 1 70 28
M  V30 75 1 71 29
M  V30 76 1 72 29
M  V30 77 1 73 30
M  V30 78 1 74 30
M  V30 79 1 75 30
M  V30 80 1 76 31
M  V30 81 1 77 31
M  V30 82 1 32 78 CFG=3
M  V30 83 1 9 79 CFG=3
M  V30 84 1 11 80 CFG=1
M  V30 85 1 81 6
M  V30 END BOND
M  V30 END CTAB
M  END
>  <i_epik_Tot_Q>  (1) 
3

>  <i_epik_Tot_abs_Q>  (1) 
3

>  <i_i_glide_confnum>  (1) 
729

>  <i_i_glide_lignum>  (1) 
134

>  <i_i_glide_posenum>  (1) 
308

>  <i_i_glide_rotatable_bonds>  (1) 
9

>  <i_lp_mmshare_version>  (1) 
72125

>  <i_m_source_file_index>  (1) 
79

>  <i_f3d_flags>  (1) 
0

>  <num_sample>  (1) 
100

>  <b_lp_Chiralities_Consistent>  (1) 
1

>  <r_epik_Charging_Adjusted_Penalty>  (1) 
1.7942086838225126

>  <r_epik_Ionization_Penalty>  (1) 
0.94562311220168549

>  <r_epik_Ionization_Penalty_Charging>  (1) 
0.94562311220168382

>  <r_epik_Ionization_Penalty_Neutral>  (1) 
1.710257484888175e-15

>  <r_epik_State_Penalty>  (1) 
0.84858557162082893

>  <r_glide_ring_energy>  (1) 
0

>  <r_i_docking_score>  (1) 
-3.9673380468672832

>  <r_i_glide_ecoul>  (1) 
-7.8164986049543117

>  <r_i_glide_eff_state_penalty>  (1) 
0.84858557162082893

>  <r_i_glide_einternal>  (1) 
16.767972402739655

>  <r_i_glide_emodel>  (1) 
-31.325226718321893

>  <r_i_glide_emodel_strain>  (1) 
2.7887902531769129

>  <r_i_glide_energy>  (1) 
-28.946657253013061

>  <r_i_glide_erotb>  (1) 
0.72404097212868179

>  <r_i_glide_esite>  (1) 
-0.081620400331392715

>  <r_i_glide_evdw>  (1) 
-21.13015864805875

>  <r_i_glide_gscore>  (1) 
-4.815923618488112

>  <r_i_glide_gscore_strain>  (1) 
0

>  <r_i_glide_hbond>  (1) 
-0.20000000000000001

>  <r_i_glide_ligand_efficiency>  (1) 
-0.12022236505658435

>  <r_i_glide_ligand_efficiency_ln>  (1) 
-0.88231543984624938

>  <r_i_glide_ligand_efficiency_sa>  (1) 
-0.38561736315228495

>  <r_i_glide_lipo>  (1) 
-1.9210402444531411

>  <r_i_glide_metal>  (1) 
-0

>  <r_i_glide_rewards>  (1) 
-1.1083212226861756

>  <r_lp_Energy>  (1) 
74.691324999999992

>  <s_epik_Chemistry_Notes>  (1) 
This compound contains an acetal/aminal-like group ( X-CH(R)-Y where X, Y are N, S, or O) that may be acid/base labile, releasing an aldehyde.

>  <s_epik_cmdline>  (1) 
J2VwaWtfcHl0aG9uJywgJy1waHQnLCAnMS4wJywgJy1waCcsICc3LjQnLCAnLXRuJywgJzgnLCAnLW1hJywgJzUwMCcsICctaW1hZScsICc8aW5maWxlLm1hZT4nLCAnLW9tYWUnLCAnPG91dGZpbGUubWFlPic=

>  <s_epik_input>  (1) 
W0NIM11bQ0BASF0xW0NIMl1bQ0gyXVtDSDJdTjFbQ0gyXVtDSDJdW0NIMl1OKFtDSDNdKVtDQEBIXTJbQ0gyXVtDQEBIXShbQ0BASF0oW0NIMl0zKVtDQEBIXTNbQ0BAXTI0W0NIMl1bQ0gzXSlbQ0BASF0oTzQpW0NIMl1bTkhdW0NASF0oW0NIMl1bQ0BdNShGKVtDSDNdKU9bQ0gyXVtDQEhdNUY=

>  <s_glide_docking_method>  (1) 
confgen

>  <s_i_glide_gridfile>  (1) 
gpcr_drd2_6luq_protein_autoprepared_prepared

>  <s_lp_Force_Field>  (1) 
S-OPLS

>  <s_lp_Variant>  (1) 
DiffSBDD_78-6

>  <s_m_source_file>  (1) 
generated_generic_title2_ligand_DiffSBDD_2026-06-23_prepared.sdf

>  <GenAI_Model>  (1) 
DiffSBDD

>  <Protein>  (1) 
generic_title2

$$$$
DiffSBDD_88
     RDKit          3D

  0  0  0  0  0  0  0  0  0  0999 V3000
M  V30 BEGIN CTAB
M  V30 COUNTS 36 37 0 0 1
M  V30 BEGIN ATOM
M  V30 1 C 5.360911 6.953682 -16.416251 0 CFG=1
M  V30 2 F 3.396339 7.307046 -17.739628 0
M  V30 3 C 8.845961 4.697493 -13.294262 0
M  V30 4 C 9.487865 4.406495 -11.932777 0
M  V30 5 O 5.775405 6.567776 -13.435972 0
M  V30 6 O 8.972393 5.164539 -9.638695 0
M  V30 7 O 5.775410 8.175787 -16.585309 0 CHG=-1
M  V30 8 C 8.968872 5.511655 -11.004555 0 CFG=2
M  V30 9 C 7.233233 5.590211 -17.610232 0
M  V30 10 N 7.667221 5.469061 -12.920456 0
M  V30 11 C 4.447316 6.501279 -17.578048 0 CFG=1
M  V30 12 F 6.887808 4.854227 -19.841294 0
M  V30 13 C 6.245138 5.120997 -18.703906 0 CFG=2
M  V30 14 C 6.753013 5.917048 -13.806388 0
M  V30 15 C 5.477958 7.352093 -19.798401 0
M  V30 16 N 7.067839 5.567121 -15.140174 0
M  V30 17 C 6.587133 5.998708 -16.272575 0
M  V30 18 C 7.555515 5.764570 -11.506438 0
M  V30 19 C 5.097227 6.130641 -18.937581 0 CFG=2
M  V30 20 H 4.709182 6.736201 -15.585015 0
M  V30 21 H 8.591350 3.777114 -13.822823 0
M  V30 22 H 9.511557 5.297522 -13.917179 0
M  V30 23 H 10.575391 4.390117 -11.985032 0
M  V30 24 H 9.154426 3.430200 -11.576876 0
M  V30 25 H 8.465091 5.823247 -9.180474 0
M  V30 26 H 9.564362 6.414847 -11.146653 0
M  V30 27 H 7.808607 6.436711 -17.985546 0
M  V30 28 H 7.960137 4.798677 -17.423668 0
M  V30 29 H 4.002625 5.590230 -17.185036 0
M  V30 30 H 5.814348 4.169434 -18.392032 0
M  V30 31 H 6.209443 7.984373 -19.305595 0
M  V30 32 H 5.889550 7.050231 -20.761197 0
M  V30 33 H 4.603581 7.973025 -19.995612 0
M  V30 34 H 6.832728 5.085044 -11.051510 0
M  V30 35 H 7.243620 6.790229 -11.310321 0
M  V30 36 H 4.338593 5.605012 -19.519384 0
M  V30 END ATOM
M  V30 BEGIN BOND
M  V30 1 1 4 3
M  V30 2 1 7 1
M  V30 3 1 8 4
M  V30 4 1 8 6
M  V30 5 1 10 3
M  V30 6 1 11 1
M  V30 7 1 11 2
M  V30 8 1 13 9
M  V30 9 1 13 12
M  V30 10 2 14 5
M  V30 11 1 14 10
M  V30 12 1 16 14
M  V30 13 1 17 1
M  V30 14 1 17 9
M  V30 15 2 17 16
M  V30 16 1 18 8
M  V30 17 1 18 10
M  V30 18 1 19 11
M  V30 19 1 19 13
M  V30 20 1 19 15
M  V30 21 1 1 20 CFG=1
M  V30 22 1 21 3
M  V30 23 1 22 3
M  V30 24 1 23 4
M  V30 25 1 24 4
M  V30 26 1 25 6
M  V30 27 1 8 26 CFG=1
M  V30 28 1 27 9
M  V30 29 1 28 9
M  V30 30 1 11 29 CFG=1
M  V30 31 1 13 30 CFG=1
M  V30 32 1 31 15
M  V30 33 1 32 15
M  V30 34 1 33 15
M  V30 35 1 34 18
M  V30 36 1 35 18
M  V30 37 1 19 36 CFG=3
M  V30 END BOND
M  V30 END CTAB
M  END
>  <i_epik_Tot_Q>  (1) 
-1

>  <i_epik_Tot_abs_Q>  (1) 
1

>  <i_i_glide_confnum>  (1) 
7

>  <i_i_glide_lignum>  (1) 
162

>  <i_i_glide_posenum>  (1) 
170

>  <i_i_glide_rotatable_bonds>  (1) 
3

>  <i_lp_mmshare_version>  (1) 
72125

>  <i_m_source_file_index>  (1) 
89

>  <i_f3d_flags>  (1) 
0

>  <num_sample>  (1) 
100

>  <b_lp_Chiralities_Consistent>  (1) 
1

>  <r_epik_Charging_Adjusted_Penalty>  (1) 
1.6999520965461032

>  <r_epik_Ionization_Penalty>  (1) 
0.8499760961676609

>  <r_epik_Ionization_Penalty_Charging>  (1) 
0.84997604827305151

>  <r_epik_Ionization_Penalty_Neutral>  (1) 
4.7894609424591191e-08

>  <r_epik_State_Penalty>  (1) 
0.84997604827305173

>  <r_glide_ring_energy>  (1) 
0.069252999385487041

>  <r_i_docking_score>  (1) 
-3.9582623821644032

>  <r_i_glide_ecoul>  (1) 
0.044596947925251595

>  <r_i_glide_eff_state_penalty>  (1) 
0.84997604827305173

>  <r_i_glide_einternal>  (1) 
1.5799182951288797

>  <r_i_glide_emodel>  (1) 
-30.674235806039729

>  <r_i_glide_emodel_strain>  (1) 
0.072965788675944054

>  <r_i_glide_energy>  (1) 
-24.767087370068648

>  <r_i_glide_erotb>  (1) 
0.4743209619600951

>  <r_i_glide_esite>  (1) 
0

>  <r_i_glide_evdw>  (1) 
-24.811684317993901

>  <r_i_glide_gscore>  (1) 
-4.8082384304374548

>  <r_i_glide_gscore_strain>  (1) 
0

>  <r_i_glide_hbond>  (1) 
0

>  <r_i_glide_ligand_efficiency>  (1) 
-0.20832959906128437

>  <r_i_glide_ligand_efficiency_ln>  (1) 
-1.0035045295594569

>  <r_i_glide_ligand_efficiency_sa>  (1) 
-0.55590704561271309

>  <r_i_glide_lipo>  (1) 
-1.5043462090265087

>  <r_i_glide_metal>  (1) 
-0

>  <r_i_glide_rewards>  (1) 
-2.5443185096601342

>  <r_lp_Energy>  (1) 
36.246699999999997

>  <s_epik_Chemistry_Notes>  (1) 
This compound has an imine and may undergo hydrolysis.

>  <s_epik_cmdline>  (1) 
J2VwaWtfcHl0aG9uJywgJy1waHQnLCAnMS4wJywgJy1waCcsICc3LjQnLCAnLXRuJywgJzgnLCAnLW1hJywgJzUwMCcsICctaW1hZScsICc8aW5maWxlLm1hZT4nLCAnLW9tYWUnLCAnPG91dGZpbGUubWFlPic=

>  <s_epik_input>  (1) 
W09IXVtDQEhdMVtDQEBIXShGKVtDQEBIXShbQ0gzXSlbQ0BASF0oRilbQ0gyXUNcMT1OXEMoPU8pTihbQ0gyXTIpW0NIMl1bQ0gyXVtDQEBIXTJbT0hd

>  <s_glide_docking_method>  (1) 
confgen

>  <s_i_glide_gridfile>  (1) 
gpcr_drd2_6luq_protein_autoprepared_prepared

>  <s_lp_Force_Field>  (1) 
S-OPLS

>  <s_lp_Variant>  (1) 
DiffSBDD_88-3

>  <s_m_source_file>  (1) 
generated_generic_title2_ligand_DiffSBDD_2026-06-23_prepared.sdf

>  <GenAI_Model>  (1) 
DiffSBDD

>  <Protein>  (1) 
generic_title2

$$$$
DiffSBDD_40
     RDKit          3D

  0  0  0  0  0  0  0  0  0  0999 V3000
M  V30 BEGIN CTAB
M  V30 COUNTS 89 95 0 0 1
M  V30 BEGIN ATOM
M  V30 1 N 8.342034 6.355373 -19.903816 0
M  V30 2 C 8.221524 4.456047 -21.549978 0
M  V30 3 C 6.874864 2.849272 -13.216970 0
M  V30 4 C 10.946977 7.189289 -9.851532 0
M  V30 5 C 6.896779 3.112116 -14.629428 0
M  V30 6 C 9.146645 5.250854 -20.509821 0 CFG=2
M  V30 7 C 6.698756 0.712647 -15.083947 0
M  V30 8 C 8.761479 5.272416 -10.667772 0 CFG=1
M  V30 9 O 11.958089 4.320250 -18.116172 0
M  V30 10 C 7.084902 3.988487 -12.140144 0 CFG=1
M  V30 11 C 6.912657 4.528903 -15.192701 0 CFG=1
M  V30 12 N 12.347550 5.767507 -16.419881 0
M  V30 13 C 10.222443 4.515020 -19.722545 0 CFG=1
M  V30 14 C 6.431964 6.239983 -13.436197 0
M  V30 15 N 10.175442 6.805122 -5.876279 0 CHG=1
M  V30 16 C 12.900104 4.794412 -17.232240 0
M  V30 17 O 9.270339 4.378656 -12.958637 0
M  V30 18 C 7.043338 5.369062 -21.478944 0
M  V30 19 C 9.558579 6.087941 -11.572008 0
M  V30 20 C 9.675235 4.139029 -17.251510 0
M  V30 21 C 6.160495 7.339755 -20.425367 0
M  V30 22 C 7.166467 6.371917 -20.592991 0
M  V30 23 N 8.483629 4.137337 -11.674791 0
M  V30 24 C 10.061435 7.415417 -11.085805 0
M  V30 25 O 14.059159 4.391374 -17.191320 0
M  V30 26 C 6.674822 1.505900 -12.785117 0
M  V30 27 N 9.375371 7.142850 -8.079063 0
M  V30 28 C 9.526383 4.975354 -9.379051 0
M  V30 29 C 6.842292 2.028568 -15.542147 0
M  V30 30 C 6.332499 5.343999 -12.213113 0 CFG=1
M  V30 31 C 6.590941 0.455796 -13.714130 0
M  V30 32 C 5.896701 5.230836 -22.278200 0
M  V30 33 C 10.606379 5.498157 -20.804056 0
M  V30 34 C 4.849341 6.173471 -22.137698 0
M  V30 35 C 9.003426 6.684460 -6.759364 0
M  V30 36 C 4.975362 5.131087 -11.629984 0
M  V30 37 C 5.934318 5.560907 -14.656766 0
M  V30 38 C 10.620184 4.808308 -18.280263 0 CFG=1
M  V30 39 C 4.983175 7.237819 -21.205546 0
M  V30 40 O 8.180024 5.030808 -15.573167 0
M  V30 41 C 9.791485 5.581443 -12.727340 0
M  V30 42 C 8.439439 4.978984 -16.970295 0
M  V30 43 C 10.264114 6.251519 -8.813658 0 CFG=1
M  V30 44 H 8.798370 7.234700 -19.704820 0
M  V30 45 H 8.670117 4.414224 -22.543019 0
M  V30 46 H 7.980012 3.458077 -21.182529 0
M  V30 47 H 11.910827 6.790219 -10.159592 0
M  V30 48 H 11.210418 8.147104 -9.398438 0
M  V30 49 H 6.641331 -0.103776 -15.791966 0
M  V30 50 H 7.920449 5.799221 -10.244764 0
M  V30 51 H 6.642939 3.541984 -11.250933 0
M  V30 52 H 6.279876 4.391423 -16.071080 0
M  V30 53 H 11.377766 6.005533 -16.544006 0
M  V30 54 H 12.935108 6.196489 -15.720731 0
M  V30 55 H 10.332344 3.464895 -19.987417 0
M  V30 56 H 7.453177 6.581434 -13.597112 0
M  V30 57 H 5.840485 7.144085 -13.277583 0
M  V30 58 H 9.935398 6.478101 -4.951374 0
M  V30 59 H 10.932424 6.248757 -6.244871 0
M  V30 60 H 9.329518 3.151947 -17.568651 0
M  V30 61 H 10.206390 3.993672 -16.309581 0
M  V30 62 H 6.276931 8.140219 -19.710529 0
M  V30 63 H 10.575334 7.930863 -11.889865 0
M  V30 64 H 9.200172 8.028829 -10.824782 0
M  V30 65 H 6.575304 1.273605 -11.740678 0
M  V30 66 H 8.515522 7.309075 -8.619260 0
M  V30 67 H 10.175169 4.132306 -9.560050 0
M  V30 68 H 8.827414 4.577279 -8.643678 0
M  V30 69 H 6.875743 2.221187 -16.604483 0
M  V30 70 H 6.653307 6.094193 -11.519970 0
M  V30 71 H 6.449222 -0.557088 -13.366548 0
M  V30 72 H 5.816645 4.422047 -22.991552 0
M  V30 73 H 11.024085 6.454589 -20.493852 0
M  V30 74 H 11.017486 5.087552 -21.723853 0
M  V30 75 H 3.955860 6.088743 -22.739790 0
M  V30 76 H 8.204240 7.325490 -6.386028 0
M  V30 77 H 8.612311 5.670154 -6.784882 0
M  V30 78 H 4.426073 4.390076 -12.221108 0
M  V30 79 H 4.982866 4.776943 -10.597838 0
M  V30 80 H 4.575338 6.133984 -11.581323 0
M  V30 81 H 5.762376 6.323484 -15.420537 0
M  V30 82 H 4.971803 5.109889 -14.440371 0
M  V30 83 H 10.617693 5.891615 -18.151920 0
M  V30 84 H 4.192023 7.964407 -21.093252 0
M  V30 85 H 10.366783 5.989809 -13.542722 0
M  V30 86 H 7.613155 4.642964 -17.599110 0
M  V30 87 H 8.635626 5.992355 -17.276802 0
M  V30 88 H 11.037498 5.909689 -8.130463 0
M  V30 89 H 10.452960 7.773272 -5.844819 0
M  V30 END ATOM
M  V30 BEGIN BOND
M  V30 1 1 5 3
M  V30 2 1 6 1 CFG=1
M  V30 3 1 6 2
M  V30 4 1 10 3
M  V30 5 1 11 5
M  V30 6 1 13 6
M  V30 7 1 16 9
M  V30 8 1 16 12
M  V30 9 1 18 2
M  V30 10 1 19 8
M  V30 11 1 22 1
M  V30 12 1 22 18
M  V30 13 2 22 21
M  V30 14 1 23 8
M  V30 15 1 23 10
M  V30 16 1 23 17
M  V30 17 1 24 4
M  V30 18 1 24 19
M  V30 19 2 25 16
M  V30 20 2 26 3
M  V30 21 1 28 8
M  V30 22 2 29 5
M  V30 23 1 29 7
M  V30 24 1 30 10
M  V30 25 1 30 14
M  V30 26 2 31 7
M  V30 27 1 31 26
M  V30 28 2 32 18
M  V30 29 1 33 6
M  V30 30 1 33 13
M  V30 31 1 34 32
M  V30 32 1 35 15
M  V30 33 1 35 27
M  V30 34 1 36 30
M  V30 35 1 37 11
M  V30 36 1 37 14
M  V30 37 1 38 9
M  V30 38 1 38 13
M  V30 39 1 38 20
M  V30 40 1 39 21
M  V30 41 2 39 34
M  V30 42 1 40 11
M  V30 43 1 41 17
M  V30 44 2 41 19
M  V30 45 1 42 20
M  V30 46 1 42 40
M  V30 47 1 43 4
M  V30 48 1 43 27
M  V30 49 1 43 28
M  V30 50 1 44 1
M  V30 51 1 45 2
M  V30 52 1 46 2
M  V30 53 1 47 4
M  V30 54 1 48 4
M  V30 55 1 49 7
M  V30 56 1 8 50 CFG=1
M  V30 57 1 10 51 CFG=1
M  V30 58 1 11 52 CFG=3
M  V30 59 1 53 12
M  V30 60 1 54 12
M  V30 61 1 13 55 CFG=3
M  V30 62 1 56 14
M  V30 63 1 57 14
M  V30 64 1 58 15
M  V30 65 1 59 15
M  V30 66 1 60 20
M  V30 67 1 61 20
M  V30 68 1 62 21
M  V30 69 1 63 24
M  V30 70 1 64 24
M  V30 71 1 65 26
M  V30 72 1 66 27
M  V30 73 1 67 28
M  V30 74 1 68 28
M  V30 75 1 69 29
M  V30 76 1 30 70 CFG=1
M  V30 77 1 71 31
M  V30 78 1 72 32
M  V30 79 1 73 33
M  V30 80 1 74 33
M  V30 81 1 75 34
M  V30 82 1 76 35
M  V30 83 1 77 35
M  V30 84 1 78 36
M  V30 85 1 79 36
M  V30 86 1 80 36
M  V30 87 1 81 37
M  V30 88 1 82 37
M  V30 89 1 38 83 CFG=3
M  V30 90 1 84 39
M  V30 91 1 85 41
M  V30 92 1 86 42
M  V30 93 1 87 42
M  V30 94 1 43 88 CFG=1
M  V30 95 1 89 15
M  V30 END BOND
M  V30 END CTAB
M  END
>  <i_epik_Tot_Q>  (1) 
1

>  <i_epik_Tot_abs_Q>  (1) 
1

>  <i_i_glide_confnum>  (1) 
627

>  <i_i_glide_lignum>  (1) 
67

>  <i_i_glide_posenum>  (1) 
194

>  <i_i_glide_rotatable_bonds>  (1) 
10

>  <i_lp_mmshare_version>  (1) 
72125

>  <i_m_source_file_index>  (1) 
41

>  <i_f3d_flags>  (1) 
0

>  <num_sample>  (1) 
100

>  <b_lp_Chiralities_Consistent>  (1) 
1

>  <r_epik_Charging_Adjusted_Penalty>  (1) 
0.00021732795814705282

>  <r_epik_Ionization_Penalty>  (1) 
0.031196808922400864

>  <r_epik_Ionization_Penalty_Charging>  (1) 
0.00021732795814705282

>  <r_epik_Ionization_Penalty_Neutral>  (1) 
0.030979480964253809

>  <r_epik_State_Penalty>  (1) 
-0

>  <r_glide_ring_energy>  (1) 
0

>  <r_i_docking_score>  (1) 
-3.9504301793732921

>  <r_i_glide_ecoul>  (1) 
-4.9900425744556332

>  <r_i_glide_eff_state_penalty>  (1) 
-0

>  <r_i_glide_einternal>  (1) 
19.303161993819646

>  <r_i_glide_emodel>  (1) 
-28.085249578026769

>  <r_i_glide_emodel_strain>  (1) 
5.8966166112820417

>  <r_i_glide_energy>  (1) 
-32.874811221042044

>  <r_i_glide_erotb>  (1) 
0.31563021086283022

>  <r_i_glide_esite>  (1) 
-0.082536079163063061

>  <r_i_glide_evdw>  (1) 
-27.884768646586409

>  <r_i_glide_gscore>  (1) 
-3.9504301793732921

>  <r_i_glide_gscore_strain>  (1) 
0.47415415282051043

>  <r_i_glide_hbond>  (1) 
-0.16

>  <r_i_glide_ligand_efficiency>  (1) 
-0.091870469287750986

>  <r_i_glide_ligand_efficiency_ln>  (1) 
-0.82971311505100109

>  <r_i_glide_ligand_efficiency_sa>  (1) 
-0.32185882390952497

>  <r_i_glide_lipo>  (1) 
-1.8857794853144225

>  <r_i_glide_metal>  (1) 
-0

>  <r_i_glide_rewards>  (1) 
-0.46915416008148048

>  <r_lp_Energy>  (1) 
53.785801999999997

>  <r_lp_tautomer_probability>  (1) 
1

>  <s_epik_Chemistry_Notes>  (1) 
This compound has an ester and may undergo hydrolysis at high or low pH. This compound contains an acetal/aminal-like group ( X-CH(R)-Y where X, Y are N, S, or O) that may be acid/base labile, releasing an aldehyde. This compound has a N-S or N-O group and may undergo hydrolysis at high or low pH.

>  <s_epik_cmdline>  (1) 
J2VwaWtfcHl0aG9uJywgJy1waHQnLCAnMS4wJywgJy1waCcsICc3LjQnLCAnLXRuJywgJzgnLCAnLW1hJywgJzUwMCcsICctaW1hZScsICc8aW5maWxlLm1hZT4nLCAnLW9tYWUnLCAnPG91dGZpbGUubWFlPic=

>  <s_epik_input>  (1) 
W2NIXTFbY0hdW2NIXVtjSF1jKFtDSDJdMiljMVtOSF1bQ0BAXTIzW0NAQEhdKFtDSDJdMylbQ0BASF0oT0MoPU8pW05IMl0pW0NIMl1bQ0gyXU9bQ0BASF0oYyhjNDUpW2NIXVtjSF1bY0hdW2NIXTUpW0NIMl1bQ0gyXVtDQEBIXShbQ0gzXSlbQ0BASF00TjZPW0NIXT1DKFtDQEBIXTY3KVtDSDJdW0NIMl1bQ0BIXShbQ0gyXTcpW05IXVtDSDJdW05IMl0=

>  <s_glide_docking_method>  (1) 
confgen

>  <s_i_glide_gridfile>  (1) 
gpcr_drd2_6luq_protein_autoprepared_prepared

>  <s_lp_Force_Field>  (1) 
S-OPLS

>  <s_lp_Variant>  (1) 
DiffSBDD_40-2

>  <s_m_source_file>  (1) 
generated_generic_title2_ligand_DiffSBDD_2026-06-23_prepared.sdf

>  <GenAI_Model>  (1) 
DiffSBDD

>  <Protein>  (1) 
generic_title2

$$$$
DiffSBDD_57
     RDKit          3D

  0  0  0  0  0  0  0  0  0  0999 V3000
M  V30 BEGIN CTAB
M  V30 COUNTS 63 67 0 0 1
M  V30 BEGIN ATOM
M  V30 1 C 5.775410 5.095365 -11.996714 0
M  V30 2 C 7.375411 3.482864 -16.187618 0
M  V30 3 C 7.561698 -3.640686 -18.324235 0
M  V30 4 N 2.975393 -4.461662 -19.796373 0
M  V30 5 C 8.521689 2.656495 -16.780399 0 CFG=2
M  V30 6 C 9.978150 4.757687 -16.554703 0
M  V30 7 C 6.960599 5.267933 -14.253004 0 CFG=2
M  V30 8 C 9.527907 3.603271 -17.475330 0
M  V30 9 C 6.763646 1.209054 -17.951217 0
M  V30 10 C 7.097135 4.871707 -11.211668 0
M  V30 11 C 5.218767 -6.314860 -16.938176 0
M  V30 12 F 4.879153 -7.316512 -17.749802 0
M  V30 13 C 6.411304 0.084932 -18.722217 0
M  V30 14 F 6.091410 -6.768601 -16.037187 0
M  V30 15 C 7.410237 -0.792900 -19.188727 0
M  V30 16 O 7.063803 -1.896643 -19.921988 0
M  V30 17 C 4.937717 -4.428828 -18.637102 0
M  V30 18 C 9.096601 5.204765 -12.875261 0
M  V30 19 C 8.315204 5.732309 -11.645491 0
M  V30 20 C 7.104730 -4.737546 -17.585027 0
M  V30 21 C 6.825999 6.790212 -14.388631 0
M  V30 22 C 8.763988 -0.539595 -18.892934 0
M  V30 23 C 9.119656 0.579437 -18.119223 0
M  V30 24 N 5.382079 -3.367802 -19.367054 0
M  V30 25 C 5.760934 4.712063 -13.504632 0
M  V30 26 N 3.588402 -4.834907 -18.780048 0
M  V30 27 N 8.820618 5.477273 -15.984574 0 CHG=1
M  V30 28 C 8.186026 4.457344 -13.819961 0 CFG=2
M  V30 29 C 5.767521 -5.140215 -17.736139 0
M  V30 30 C 8.122953 1.457692 -17.641908 0
M  V30 31 C 6.665589 -2.987097 -19.191244 0
M  V30 32 C 7.867133 4.595092 -15.281759 0 CFG=2
M  V30 33 H 4.990288 4.522305 -11.502925 0
M  V30 34 H 5.471359 6.133974 -11.867882 0
M  V30 35 H 6.806331 3.940271 -16.996953 0
M  V30 36 H 6.698318 2.841995 -15.621600 0
M  V30 37 H 8.575408 -3.297518 -18.221941 0
M  V30 38 H 1.983841 -4.772499 -19.739626 0
M  V30 39 H 8.975404 2.179901 -15.922062 0
M  V30 40 H 10.594760 4.390227 -15.734621 0
M  V30 41 H 10.595806 5.463754 -17.110648 0
M  V30 42 H 10.411190 3.054445 -17.802258 0
M  V30 43 H 9.072964 4.011553 -18.379008 0
M  V30 44 H 5.991497 1.870630 -17.592736 0
M  V30 45 H 7.362548 3.819100 -11.224682 0
M  V30 46 H 6.890466 5.104908 -10.165737 0
M  V30 47 H 4.328258 -6.009803 -16.385053 0
M  V30 48 H 5.372919 -0.109277 -18.950521 0
M  V30 49 H 9.866064 4.506826 -12.542406 0
M  V30 50 H 9.620578 6.007945 -13.385031 0
M  V30 51 H 9.011549 5.807319 -10.809143 0
M  V30 52 H 7.978964 6.754737 -11.820202 0
M  V30 53 H 7.765996 -5.255104 -16.905972 0
M  V30 54 H 6.274247 7.230186 -13.560400 0
M  V30 55 H 7.785943 7.294264 -14.415418 0
M  V30 56 H 6.282793 7.033088 -15.302345 0
M  V30 57 H 9.529221 -1.209782 -19.252330 0
M  V30 58 H 10.158255 0.761543 -17.885296 0
M  V30 59 H 5.738887 3.625614 -13.597151 0
M  V30 60 H 4.845879 5.071205 -13.976218 0
M  V30 61 H 9.152947 6.173006 -15.333063 0
M  V30 62 H 8.015828 3.441286 -13.465406 0
M  V30 63 H 8.327041 5.941798 -16.732923 0
M  V30 END ATOM
M  V30 BEGIN BOND
M  V30 1 1 5 2
M  V30 2 1 8 5
M  V30 3 1 8 6
M  V30 4 1 10 1
M  V30 5 1 12 11
M  V30 6 2 13 9
M  V30 7 1 14 11
M  V30 8 1 15 13
M  V30 9 1 16 15
M  V30 10 1 19 10
M  V30 11 1 19 18
M  V30 12 2 20 3
M  V30 13 1 7 21 CFG=3
M  V30 14 2 22 15
M  V30 15 1 23 22
M  V30 16 1 24 17
M  V30 17 1 25 1
M  V30 18 1 25 7
M  V30 19 2 26 4
M  V30 20 1 26 17
M  V30 21 1 27 6
M  V30 22 1 28 7
M  V30 23 1 28 18
M  V30 24 1 29 11
M  V30 25 2 29 17
M  V30 26 1 29 20
M  V30 27 1 30 5
M  V30 28 1 30 9
M  V30 29 2 30 23
M  V30 30 1 31 3
M  V30 31 1 31 16
M  V30 32 2 31 24
M  V30 33 1 32 2 CFG=3
M  V30 34 1 32 7
M  V30 35 1 32 27
M  V30 36 1 32 28
M  V30 37 1 33 1
M  V30 38 1 34 1
M  V30 39 1 35 2
M  V30 40 1 36 2
M  V30 41 1 37 3
M  V30 42 1 38 4
M  V30 43 1 5 39 CFG=1
M  V30 44 1 40 6
M  V30 45 1 41 6
M  V30 46 1 42 8
M  V30 47 1 43 8
M  V30 48 1 44 9
M  V30 49 1 45 10
M  V30 50 1 46 10
M  V30 51 1 47 11
M  V30 52 1 48 13
M  V30 53 1 49 18
M  V30 54 1 50 18
M  V30 55 1 51 19
M  V30 56 1 52 19
M  V30 57 1 53 20
M  V30 58 1 54 21
M  V30 59 1 55 21
M  V30 60 1 56 21
M  V30 61 1 57 22
M  V30 62 1 58 23
M  V30 63 1 59 25
M  V30 64 1 60 25
M  V30 65 1 61 27
M  V30 66 1 28 62 CFG=1
M  V30 67 1 63 27
M  V30 END BOND
M  V30 END CTAB
M  END
>  <i_epik_Tot_Q>  (1) 
1

>  <i_epik_Tot_abs_Q>  (1) 
1

>  <i_i_glide_confnum>  (1) 
9

>  <i_i_glide_lignum>  (1) 
91

>  <i_i_glide_posenum>  (1) 
238

>  <i_i_glide_rotatable_bonds>  (1) 
5

>  <i_lp_mmshare_version>  (1) 
72125

>  <i_m_source_file_index>  (1) 
58

>  <i_f3d_flags>  (1) 
0

>  <num_sample>  (1) 
100

>  <b_lp_Chiralities_Consistent>  (1) 
1

>  <r_epik_Charging_Adjusted_Penalty>  (1) 
0.05439887129790702

>  <r_epik_Ionization_Penalty>  (1) 
0.027199436685871044

>  <r_epik_Ionization_Penalty_Charging>  (1) 
0.02719943564895351

>  <r_epik_Ionization_Penalty_Neutral>  (1) 
1.0369175350527502e-09

>  <r_epik_State_Penalty>  (1) 
0.02719943564895351

>  <r_glide_ring_energy>  (1) 
0

>  <r_i_docking_score>  (1) 
-3.9453436328096028

>  <r_i_glide_ecoul>  (1) 
-3.0263606721654166

>  <r_i_glide_eff_state_penalty>  (1) 
0.02719943564895351

>  <r_i_glide_einternal>  (1) 
7.2362614301117674

>  <r_i_glide_emodel>  (1) 
-36.088184665595435

>  <r_i_glide_emodel_strain>  (1) 
0.10151516926353565

>  <r_i_glide_energy>  (1) 
-34.766484199083166

>  <r_i_glide_erotb>  (1) 
0.3073767375315366

>  <r_i_glide_esite>  (1) 
-0.11241327498107417

>  <r_i_glide_evdw>  (1) 
-31.740123526917753

>  <r_i_glide_gscore>  (1) 
-3.9725430684585561

>  <r_i_glide_gscore_strain>  (1) 
0

>  <r_i_glide_hbond>  (1) 
-0.018989508523863167

>  <r_i_glide_ligand_efficiency>  (1) 
-0.12329198852530009

>  <r_i_glide_ligand_efficiency_ln>  (1) 
-0.88346998539168609

>  <r_i_glide_ligand_efficiency_sa>  (1) 
-0.39142766456862516

>  <r_i_glide_lipo>  (1) 
-1.3228777450025477

>  <r_i_glide_metal>  (1) 
-0

>  <r_i_glide_rewards>  (1) 
-0.78467900031190729

>  <r_lp_Energy>  (1) 
78.297426000000002

>  <r_lp_tautomer_probability>  (1) 
1

>  <s_epik_cmdline>  (1) 
J2VwaWtfcHl0aG9uJywgJy1waHQnLCAnMS4wJywgJy1waCcsICc3LjQnLCAnLXRuJywgJzgnLCAnLW1hJywgJzUwMCcsICctaW1hZScsICc8aW5maWxlLm1hZT4nLCAnLW9tYWUnLCAnPG91dGZpbGUubWFlPic=

>  <s_epik_input>  (1) 
W0NIMl0xW0NIMl1bQ0gyXVtDSDJdW0NIMl1bQ0BIXTJbQ0BAXTEoW0NIM10pW0NAXTIzW0NIMl1bQ0BIXShbQ0gyXVtDSDJdW05IXTMpYyhbY0hdW2NIXTQpW2NIXVtjSF1jNE9jKFtjSF1bY0hdYzVbQ0hdKEYpRiluYzVcTj1OXFtIXQ==

>  <s_glide_docking_method>  (1) 
confgen

>  <s_i_glide_gridfile>  (1) 
gpcr_drd2_6luq_protein_autoprepared_prepared

>  <s_lp_Force_Field>  (1) 
S-OPLS

>  <s_lp_Variant>  (1) 
DiffSBDD_57-1

>  <s_m_source_file>  (1) 
generated_generic_title2_ligand_DiffSBDD_2026-06-23_prepared.sdf

>  <GenAI_Model>  (1) 
DiffSBDD

>  <Protein>  (1) 
generic_title2

$$$$
DiffSBDD_26
     RDKit          3D

  0  0  0  0  0  0  0  0  0  0999 V3000
M  V30 BEGIN CTAB
M  V30 COUNTS 56 58 0 0 1
M  V30 BEGIN ATOM
M  V30 1 C 5.895865 5.407882 -13.827670 0
M  V30 2 O 11.315359 7.152594 -7.389265 0
M  V30 3 C 6.395940 7.120667 -16.623944 0 CFG=1
M  V30 4 C 10.717732 6.608516 -12.143825 0
M  V30 5 C 4.862679 7.877908 -18.560441 0
M  V30 6 C 6.305565 7.505478 -12.601960 0
M  V30 7 C 8.389343 6.216890 -12.191623 0 CFG=2
M  V30 8 C 10.286845 5.138184 -12.375872 0
M  V30 9 C 6.791647 3.814681 -11.984919 0
M  V30 10 N 8.976356 4.962917 -11.778455 0
M  V30 11 N 9.375406 7.744023 -10.340809 0 CHG=1
M  V30 12 C 6.894054 5.760707 -17.157448 0
M  V30 13 C 9.857999 6.873592 -9.250461 0
M  V30 14 C 8.285362 3.811340 -12.367871 0
M  V30 15 C 4.965290 7.512975 -17.063684 0
M  V30 16 C 6.105737 5.139200 -12.341435 0 CFG=1
M  V30 17 C 5.937053 6.948503 -13.996764 0 CFG=1
M  V30 18 C 9.415050 7.289950 -11.759860 0 CFG=1
M  V30 19 O 7.882424 5.213494 -16.671549 0
M  V30 20 C 6.811542 7.455376 -15.160181 0
M  V30 21 O 11.458283 8.634310 -9.046214 0 CHG=-1
M  V30 22 C 6.905532 6.336624 -11.844344 0 CFG=2
M  V30 23 C 3.987768 6.391421 -16.785476 0
M  V30 24 C 10.972977 7.616471 -8.496400 0
M  V30 25 H 4.958004 4.961619 -14.138482 0
M  V30 26 H 6.681616 4.931319 -14.408680 0
M  V30 27 H 6.975399 7.823429 -17.185023 0
M  V30 28 H 11.107265 7.008790 -13.078346 0
M  V30 29 H 11.499997 6.790187 -11.404766 0
M  V30 30 H 5.272624 7.099296 -19.204130 0
M  V30 31 H 5.375387 8.807212 -18.794310 0
M  V30 32 H 3.819407 8.016847 -18.848307 0
M  V30 33 H 6.993704 8.350598 -12.610846 0
M  V30 34 H 5.402396 7.834685 -12.083835 0
M  V30 35 H 8.426127 6.208140 -13.278413 0
M  V30 36 H 10.175464 4.965694 -13.449862 0
M  V30 37 H 10.975432 4.400797 -11.985020 0
M  V30 38 H 6.688505 3.676694 -10.909006 0
M  V30 39 H 6.273598 2.973260 -12.448431 0
M  V30 40 H 8.411578 7.988924 -10.085124 0
M  V30 41 H 6.319033 5.338091 -17.980682 0
M  V30 42 H 9.022496 6.700445 -8.570268 0
M  V30 43 H 10.189108 5.895528 -9.587210 0
M  V30 44 H 8.379282 3.815030 -13.454180 0
M  V30 45 H 8.761854 2.894819 -12.016700 0
M  V30 46 H 4.659277 8.382768 -16.478555 0
M  V30 47 H 5.127044 5.156860 -11.859837 0
M  V30 48 H 4.975400 7.363292 -14.207930 0
M  V30 49 H 9.282446 8.186512 -12.364049 0
M  V30 50 H 7.822737 7.108819 -14.999018 0
M  V30 51 H 6.884414 8.539683 -15.099290 0
M  V30 52 H 6.762914 6.390229 -10.785018 0
M  V30 53 H 4.175413 5.590248 -17.485639 0
M  V30 54 H 2.954503 6.715238 -16.867004 0
M  V30 55 H 4.175407 5.990257 -15.805239 0
M  V30 56 H 9.971801 8.557161 -10.227714 0
M  V30 END ATOM
M  V30 BEGIN BOND
M  V30 1 1 8 4
M  V30 2 1 10 7
M  V30 3 1 10 8
M  V30 4 1 12 3
M  V30 5 1 13 11
M  V30 6 1 14 9
M  V30 7 1 14 10
M  V30 8 1 15 3
M  V30 9 1 15 5
M  V30 10 1 16 1
M  V30 11 1 16 9
M  V30 12 1 17 1
M  V30 13 1 17 6
M  V30 14 1 18 4
M  V30 15 1 18 7
M  V30 16 1 18 11
M  V30 17 2 19 12
M  V30 18 1 20 3
M  V30 19 1 20 17
M  V30 20 1 22 6
M  V30 21 1 22 7
M  V30 22 1 22 16
M  V30 23 1 23 15
M  V30 24 2 24 2
M  V30 25 1 24 13
M  V30 26 1 24 21
M  V30 27 1 25 1
M  V30 28 1 26 1
M  V30 29 1 3 27 CFG=3
M  V30 30 1 28 4
M  V30 31 1 29 4
M  V30 32 1 30 5
M  V30 33 1 31 5
M  V30 34 1 32 5
M  V30 35 1 33 6
M  V30 36 1 34 6
M  V30 37 1 7 35 CFG=3
M  V30 38 1 36 8
M  V30 39 1 37 8
M  V30 40 1 38 9
M  V30 41 1 39 9
M  V30 42 1 40 11
M  V30 43 1 41 12
M  V30 44 1 42 13
M  V30 45 1 43 13
M  V30 46 1 44 14
M  V30 47 1 45 14
M  V30 48 1 46 15
M  V30 49 1 16 47 CFG=1
M  V30 50 1 17 48 CFG=3
M  V30 51 1 18 49 CFG=3
M  V30 52 1 50 20
M  V30 53 1 51 20
M  V30 54 1 22 52 CFG=1
M  V30 55 1 53 23
M  V30 56 1 54 23
M  V30 57 1 55 23
M  V30 58 1 56 11
M  V30 END BOND
M  V30 END CTAB
M  END
>  <i_epik_Tot_Q>  (1) 
0

>  <i_epik_Tot_abs_Q>  (1) 
2

>  <i_i_glide_confnum>  (1) 
50

>  <i_i_glide_lignum>  (1) 
47

>  <i_i_glide_posenum>  (1) 
222

>  <i_i_glide_rotatable_bonds>  (1) 
7

>  <i_lp_mmshare_version>  (1) 
72125

>  <i_m_source_file_index>  (1) 
27

>  <i_f3d_flags>  (1) 
0

>  <num_sample>  (1) 
100

>  <b_lp_Chiralities_Consistent>  (1) 
1

>  <r_epik_Charging_Adjusted_Penalty>  (1) 
0.88863216281337021

>  <r_epik_Ionization_Penalty>  (1) 
0.10008493971951925

>  <r_epik_Ionization_Penalty_Charging>  (1) 
0.025347597467073411

>  <r_epik_Ionization_Penalty_Neutral>  (1) 
0.07473734225244584

>  <r_epik_State_Penalty>  (1) 
0.86328456534629683

>  <r_glide_ring_energy>  (1) 
0

>  <r_i_docking_score>  (1) 
-3.9401275029497729

>  <r_i_glide_ecoul>  (1) 
-5.7124236538595969

>  <r_i_glide_eff_state_penalty>  (1) 
0.86328456534629683

>  <r_i_glide_einternal>  (1) 
6.2182907139981403

>  <r_i_glide_emodel>  (1) 
-24.694036499391039

>  <r_i_glide_emodel_strain>  (1) 
1.1846273364179041

>  <r_i_glide_energy>  (1) 
-22.065143054374609

>  <r_i_glide_erotb>  (1) 
0.66727664270853937

>  <r_i_glide_esite>  (1) 
-0.10000000000000001

>  <r_i_glide_evdw>  (1) 
-16.35271940051501

>  <r_i_glide_gscore>  (1) 
-4.8034120682960699

>  <r_i_glide_gscore_strain>  (1) 
0

>  <r_i_glide_hbond>  (1) 
-0.20000000000000001

>  <r_i_glide_ligand_efficiency>  (1) 
-0.16417197928957386

>  <r_i_glide_ligand_efficiency_ln>  (1) 
-0.94305331212586174

>  <r_i_glide_ligand_efficiency_sa>  (1) 
-0.47355393317380934

>  <r_i_glide_lipo>  (1) 
-1.6290889014083472

>  <r_i_glide_metal>  (1) 
-0

>  <r_i_glide_rewards>  (1) 
-1.8671002914915711

>  <r_lp_Energy>  (1) 
21.078503999999999

>  <s_epik_cmdline>  (1) 
J2VwaWtfcHl0aG9uJywgJy1waHQnLCAnMS4wJywgJy1waCcsICc3LjQnLCAnLXRuJywgJzgnLCAnLW1hJywgJzUwMCcsICctaW1hZScsICc8aW5maWxlLm1hZT4nLCAnLW9tYWUnLCAnPG91dGZpbGUubWFlPic=

>  <s_epik_input>  (1) 
W0NIM11bQ0hdKFtDSDNdKVtDQEhdKFtDSF09TylbQ0gyXVtDQEBIXShbQ0gyXTEpW0NIMl1bQ0BIXTJbQ0BASF0xW0NIMl1bQ0gyXU4oW0NAQEhdMjMpW0NIMl1bQ0gyXVtDQEBIXTNbTkhdW0NIMl1DKD1PKVtPSF0=

>  <s_glide_docking_method>  (1) 
confgen

>  <s_i_glide_gridfile>  (1) 
gpcr_drd2_6luq_protein_autoprepared_prepared

>  <s_lp_Force_Field>  (1) 
S-OPLS

>  <s_lp_Variant>  (1) 
DiffSBDD_26-3

>  <s_m_source_file>  (1) 
generated_generic_title2_ligand_DiffSBDD_2026-06-23_prepared.sdf

>  <GenAI_Model>  (1) 
DiffSBDD

>  <Protein>  (1) 
generic_title2

$$$$
DiffSBDD_90
     RDKit          3D

  0  0  0  0  0  0  0  0  0  0999 V3000
M  V30 BEGIN CTAB
M  V30 COUNTS 80 84 0 0 1
M  V30 BEGIN ATOM
M  V30 1 C 7.445954 7.636142 -13.049115 0
M  V30 2 C 8.484657 6.539074 -12.765743 0 CFG=1
M  V30 3 C 10.038993 7.580089 -9.646882 0
M  V30 4 C 10.211572 4.678485 -16.416717 0 CFG=2
M  V30 5 C 10.779025 7.190038 -11.659420 0
M  V30 6 C 10.115291 7.952868 -8.260541 0 CFG=2
M  V30 7 C 6.609733 4.663573 -15.029034 0 CFG=2
M  V30 8 O 6.196974 7.418431 -15.131446 0
M  V30 9 C 6.325001 6.936497 -13.815967 0 CFG=1
M  V30 10 C 10.693446 6.302891 -18.397473 0
M  V30 11 O 12.938268 6.839453 -15.140563 0
M  V30 12 C 9.417060 6.942544 -11.669616 0
M  V30 13 C 7.204218 4.404786 -11.645241 0 CFG=2
M  V30 14 O 14.736906 5.824868 -16.011725 0 CHG=-1
M  V30 15 O 9.985087 3.626990 -17.333906 0
M  V30 16 C 7.654256 4.820579 -16.206115 0 CFG=2
M  V30 17 N 9.004147 5.131950 -15.699596 0
M  V30 18 N 6.653557 5.515602 -13.822769 0
M  V30 19 C 14.175261 3.753210 -17.768903 0
M  V30 20 C 7.253627 5.736007 -17.398782 0
M  V30 21 O 7.788281 4.675366 -10.393683 0
M  V30 22 O 5.921282 5.589431 -17.844593 0
M  V30 23 O 7.661726 1.508567 -13.184644 0
M  V30 24 C 8.190297 3.835259 -12.649024 0 CFG=1
M  V30 25 C 13.512452 6.075298 -15.949106 0
M  V30 26 C 6.574695 3.198736 -14.534489 0
M  V30 27 N 11.072890 7.590270 -10.386143 0
M  V30 28 O 15.113259 3.848245 -18.558934 0
M  V30 29 C 11.668745 8.346364 -8.339015 0
M  V30 30 N 9.003448 7.204663 -10.385742 0 CHG=1
M  V30 31 C 11.107925 5.810571 -16.993969 0 CFG=2
M  V30 32 O 10.588436 7.635711 -5.403860 0
M  V30 33 O 9.881307 6.819683 -7.439436 0
M  V30 34 C 9.521023 7.136352 -6.140963 0
M  V30 35 C 14.252045 2.770665 -16.594399 0
M  V30 36 C 12.592366 5.362882 -16.994490 0
M  V30 37 C 7.800331 2.808607 -13.716240 0 CFG=2
M  V30 38 C 11.438986 6.618837 -4.899518 0
M  V30 39 N 12.980379 4.454125 -17.835802 0
M  V30 40 C 12.288479 8.011591 -9.781190 0
M  V30 41 C 7.667392 5.257965 -12.808644 0 CFG=1
M  V30 42 H 7.032955 8.011296 -12.111854 0
M  V30 43 H 7.851880 8.486867 -13.585200 0
M  V30 44 H 9.151970 6.390229 -13.594573 0
M  V30 45 H 10.826688 4.224325 -15.641327 0
M  V30 46 H 11.523391 7.130183 -12.444452 0
M  V30 47 H 9.435632 8.792135 -8.105225 0
M  V30 48 H 5.640576 4.848810 -15.474537 0
M  V30 49 H 5.378413 7.885497 -15.204868 0
M  V30 50 H 5.375283 7.085384 -13.302119 0
M  V30 51 H 11.381653 7.069076 -18.756618 0
M  V30 52 H 10.684389 5.500182 -19.134716 0
M  V30 53 H 9.705906 6.757207 -18.386351 0
M  V30 54 H 6.177495 4.047745 -11.606252 0
M  V30 55 H 10.822726 3.387254 -17.706109 0
M  V30 56 H 7.678566 3.829570 -16.658159 0
M  V30 57 H 9.056860 4.778971 -14.750926 0
M  V30 58 H 7.896832 5.513918 -18.248352 0
M  V30 59 H 7.375273 6.789352 -17.182650 0
M  V30 60 H 7.383170 4.120977 -9.742637 0
M  V30 61 H 5.771995 6.203284 -18.547890 0
M  V30 62 H 6.950998 1.499111 -12.562209 0
M  V30 63 H 9.214119 3.723238 -12.294123 0
M  V30 64 H 5.696211 3.061008 -13.907447 0
M  V30 65 H 6.478150 2.507288 -15.372397 0
M  V30 66 H 11.771593 9.415327 -8.154366 0
M  V30 67 H 12.238356 7.846433 -7.556691 0
M  V30 68 H 10.979324 6.673692 -16.348968 0
M  V30 69 H 8.714139 7.870873 -6.153358 0
M  V30 70 H 9.123894 6.233259 -5.674478 0
M  V30 71 H 14.940469 1.957840 -16.826077 0
M  V30 72 H 14.608460 3.261787 -15.688612 0
M  V30 73 H 13.276827 2.329691 -16.385492 0
M  V30 74 H 8.575419 2.747300 -14.457805 0
M  V30 75 H 12.275989 7.073697 -4.371870 0
M  V30 76 H 10.925148 5.985549 -4.177478 0
M  V30 77 H 11.832224 5.992379 -5.701678 0
M  V30 78 H 12.986116 7.190154 -9.749027 0
M  V30 79 H 12.696222 8.873510 -10.311226 0
M  V30 80 H 8.025679 7.164536 -10.042923 0
M  V30 END ATOM
M  V30 BEGIN BOND
M  V30 1 1 2 1
M  V30 2 1 6 3
M  V30 3 1 9 1
M  V30 4 1 9 8
M  V30 5 1 12 2
M  V30 6 2 12 5
M  V30 7 1 15 4
M  V30 8 1 16 7
M  V30 9 1 17 4
M  V30 10 1 17 16
M  V30 11 1 18 7
M  V30 12 1 18 9
M  V30 13 1 20 16
M  V30 14 1 21 13
M  V30 15 1 22 20
M  V30 16 1 24 13
M  V30 17 2 25 11
M  V30 18 1 25 14
M  V30 19 1 26 7
M  V30 20 1 27 3
M  V30 21 1 27 5
M  V30 22 2 28 19
M  V30 23 1 29 6
M  V30 24 2 30 3
M  V30 25 1 30 12
M  V30 26 1 31 4
M  V30 27 1 31 10
M  V30 28 1 33 6
M  V30 29 1 34 32
M  V30 30 1 34 33
M  V30 31 1 35 19
M  V30 32 1 36 25
M  V30 33 1 36 31
M  V30 34 1 37 23
M  V30 35 1 37 24
M  V30 36 1 37 26
M  V30 37 1 38 32
M  V30 38 1 39 19
M  V30 39 2 39 36
M  V30 40 1 40 27
M  V30 41 1 40 29
M  V30 42 1 41 2
M  V30 43 1 41 13
M  V30 44 1 41 18 CFG=3
M  V30 45 1 41 24
M  V30 46 1 42 1
M  V30 47 1 43 1
M  V30 48 1 2 44 CFG=3
M  V30 49 1 4 45 CFG=1
M  V30 50 1 46 5
M  V30 51 1 6 47 CFG=3
M  V30 52 1 7 48 CFG=3
M  V30 53 1 49 8
M  V30 54 1 9 50 CFG=1
M  V30 55 1 51 10
M  V30 56 1 52 10
M  V30 57 1 53 10
M  V30 58 1 13 54 CFG=1
M  V30 59 1 55 15
M  V30 60 1 16 56 CFG=3
M  V30 61 1 57 17
M  V30 62 1 58 20
M  V30 63 1 59 20
M  V30 64 1 60 21
M  V30 65 1 61 22
M  V30 66 1 62 23
M  V30 67 1 24 63 CFG=1
M  V30 68 1 64 26
M  V30 69 1 65 26
M  V30 70 1 66 29
M  V30 71 1 67 29
M  V30 72 1 31 68 CFG=1
M  V30 73 1 69 34
M  V30 74 1 70 34
M  V30 75 1 71 35
M  V30 76 1 72 35
M  V30 77 1 73 35
M  V30 78 1 37 74 CFG=3
M  V30 79 1 75 38
M  V30 80 1 76 38
M  V30 81 1 77 38
M  V30 82 1 78 40
M  V30 83 1 79 40
M  V30 84 1 80 30
M  V30 END BOND
M  V30 END CTAB
M  END
>  <i_epik_Tot_Q>  (1) 
0

>  <i_epik_Tot_abs_Q>  (1) 
2

>  <i_i_glide_confnum>  (1) 
2180

>  <i_i_glide_lignum>  (1) 
173

>  <i_i_glide_posenum>  (1) 
53

>  <i_i_glide_rotatable_bonds>  (1) 
17

>  <i_lp_mmshare_version>  (1) 
72125

>  <i_m_source_file_index>  (1) 
91

>  <i_f3d_flags>  (1) 
0

>  <num_sample>  (1) 
100

>  <b_lp_Chiralities_Consistent>  (1) 
1

>  <r_epik_Charging_Adjusted_Penalty>  (1) 
1.2730775069092737

>  <r_epik_Ionization_Penalty>  (1) 
0.33079184029548347

>  <r_epik_Ionization_Penalty_Charging>  (1) 
4.3976256739559524e-06

>  <r_epik_Ionization_Penalty_Neutral>  (1) 
0.33078744266980953

>  <r_epik_State_Penalty>  (1) 
1.2730731092835996

>  <r_glide_ring_energy>  (1) 
0

>  <r_i_docking_score>  (1) 
-3.9321468976770988

>  <r_i_glide_ecoul>  (1) 
-8.5672542558009557

>  <r_i_glide_eff_state_penalty>  (1) 
1.2730731092835996

>  <r_i_glide_einternal>  (1) 
20.910631940009871

>  <r_i_glide_emodel>  (1) 
-44.644131704855027

>  <r_i_glide_emodel_strain>  (1) 
4.1789492762830776

>  <r_i_glide_energy>  (1) 
-46.410165357810733

>  <r_i_glide_erotb>  (1) 
0.57888693115673628

>  <r_i_glide_esite>  (1) 
-0.19972523614593643

>  <r_i_glide_evdw>  (1) 
-37.842911102009779

>  <r_i_glide_gscore>  (1) 
-5.2052200069606984

>  <r_i_glide_gscore_strain>  (1) 
0.044737319070769388

>  <r_i_glide_hbond>  (1) 
-0.14571499598792634

>  <r_i_glide_ligand_efficiency>  (1) 
-0.09590602189456339

>  <r_i_glide_ligand_efficiency_ln>  (1) 
-0.83421804992713833

>  <r_i_glide_ligand_efficiency_sa>  (1) 
-0.33070479815335713

>  <r_i_glide_lipo>  (1) 
-1.568893108709825

>  <r_i_glide_metal>  (1) 
-0

>  <r_i_glide_rewards>  (1) 
-0.73727722287388386

>  <r_lp_Energy>  (1) 
68.250592999999995

>  <s_epik_Chemistry_Notes>  (1) 
This compound has an imine and may undergo hydrolysis. This compound contains an acetal/aminal-like group ( X-CH(R)-Y where X, Y are N, S, or O) that may be acid/base labile, releasing an aldehyde.

>  <s_epik_cmdline>  (1) 
J2VwaWtfcHl0aG9uJywgJy1waHQnLCAnMS4wJywgJy1waCcsICc3LjQnLCAnLXRuJywgJzgnLCAnLW1hJywgJzUwMCcsICctaW1hZScsICc8aW5maWxlLm1hZT4nLCAnLW9tYWUnLCAnPG91dGZpbGUubWFlPic=

>  <s_epik_input>  (1) 
W0NIM11PW0NIMl1PW0NASF0xW0NIMl1bQ0gyXW4oYzEyKVtjSF1jKG4yKVtDQEBIXTNbQ0gyXVtDQEBIXShbT0hdKU4oW0NAQF0zNDUpW0NASF0oW0NIMl1bQ0BIXShbT0hdKVtDQEBIXTVbQ0BIXTRbT0hdKVtDQEBIXShbQ0gyXVtPSF0pW05IXVtDQEBIXShbT0hdKVtDQEhdKFtDSDNdKUMoXEMoPU8pW09IXSk9TlxDKD1PKVtDSDNd

>  <s_glide_docking_method>  (1) 
confgen

>  <s_i_glide_gridfile>  (1) 
gpcr_drd2_6luq_protein_autoprepared_prepared

>  <s_lp_Force_Field>  (1) 
S-OPLS

>  <s_lp_Variant>  (1) 
DiffSBDD_90-8

>  <s_m_source_file>  (1) 
generated_generic_title2_ligand_DiffSBDD_2026-06-23_prepared.sdf

>  <GenAI_Model>  (1) 
DiffSBDD

>  <Protein>  (1) 
generic_title2

$$$$
DiffSBDD_26
     RDKit          3D

  0  0  0  0  0  0  0  0  0  0999 V3000
M  V30 BEGIN CTAB
M  V30 COUNTS 56 58 0 0 1
M  V30 BEGIN ATOM
M  V30 1 C 5.602433 5.415891 -14.122054 0
M  V30 2 O 12.155133 7.990828 -8.951325 0
M  V30 3 C 6.430562 6.916924 -17.007659 0 CFG=1
M  V30 4 C 10.532028 6.181038 -12.254673 0
M  V30 5 C 5.208471 7.752912 -19.154218 0
M  V30 6 C 6.317242 7.449791 -12.972565 0
M  V30 7 C 8.229150 5.984629 -12.455873 0 CFG=2
M  V30 8 C 10.066169 4.711781 -12.367486 0
M  V30 9 C 6.442787 3.736967 -12.309282 0
M  V30 10 N 8.665115 4.686923 -11.995446 0
M  V30 11 N 9.134656 7.102389 -10.410705 0 CHG=1
M  V30 12 C 6.575835 5.436718 -17.369610 0
M  V30 13 C 9.954818 8.178933 -9.813550 0
M  V30 14 C 7.931439 3.623690 -12.680700 0
M  V30 15 C 5.218834 7.692476 -17.609664 0
M  V30 16 C 5.864006 5.123892 -12.637351 0 CFG=1
M  V30 17 C 5.871484 6.912865 -14.351678 0 CFG=1
M  V30 18 C 9.271438 6.939565 -11.877946 0 CFG=1
M  V30 19 O 6.067928 4.980832 -18.390801 0
M  V30 20 C 6.814405 7.252593 -15.527032 0
M  V30 21 O 10.574071 6.693458 -8.072314 0 CHG=-1
M  V30 22 C 6.759914 6.254583 -12.148270 0 CFG=2
M  V30 23 C 3.831400 7.283925 -17.088181 0
M  V30 24 C 10.981366 7.571819 -8.863027 0
M  V30 25 H 4.575440 5.190238 -14.384980 0
M  V30 26 H 6.247851 4.789625 -14.730657 0
M  V30 27 H 7.265658 7.299428 -17.585053 0
M  V30 28 H 10.885250 6.494890 -13.233711 0
M  V30 29 H 11.360496 6.390348 -11.585027 0
M  V30 30 H 4.870297 6.819280 -19.601153 0
M  V30 31 H 6.192223 7.979303 -19.565840 0
M  V30 32 H 4.527537 8.528677 -19.506601 0
M  V30 33 H 7.129318 8.168875 -13.036958 0
M  V30 34 H 5.478735 7.931805 -12.464994 0
M  V30 35 H 8.356276 5.981225 -13.535699 0
M  V30 36 H 10.175347 4.376802 -13.398776 0
M  V30 37 H 10.575403 4.019443 -11.721323 0
M  V30 38 H 6.331419 3.576724 -11.236229 0
M  V30 39 H 5.862097 2.956304 -12.800619 0
M  V30 40 H 9.363648 6.240733 -9.932359 0
M  V30 41 H 7.159450 4.837766 -16.671713 0
M  V30 42 H 10.447987 8.787464 -10.570813 0
M  V30 43 H 9.303521 8.838961 -9.241351 0
M  V30 44 H 8.058332 3.696808 -13.761844 0
M  V30 45 H 8.323769 2.650736 -12.384915 0
M  V30 46 H 5.375402 8.724408 -17.298104 0
M  V30 47 H 4.936376 5.220434 -12.089026 0
M  V30 48 H 4.975409 7.454526 -14.577818 0
M  V30 49 H 9.236804 7.915374 -12.363233 0
M  V30 50 H 7.775355 6.790100 -15.324157 0
M  V30 51 H 6.975412 8.330136 -15.484053 0
M  V30 52 H 6.608689 6.390207 -11.081305 0
M  V30 53 H 3.790606 6.240172 -16.777713 0
M  V30 54 H 3.055075 7.432246 -17.840357 0
M  V30 55 H 3.554060 7.923596 -16.252684 0
M  V30 56 H 8.157806 7.325616 -10.162326 0
M  V30 END ATOM
M  V30 BEGIN BOND
M  V30 1 1 8 4
M  V30 2 1 10 7
M  V30 3 1 10 8
M  V30 4 1 12 3
M  V30 5 1 13 11
M  V30 6 1 14 9
M  V30 7 1 14 10
M  V30 8 1 15 3
M  V30 9 1 15 5
M  V30 10 1 16 1
M  V30 11 1 16 9
M  V30 12 1 17 1
M  V30 13 1 17 6
M  V30 14 1 18 4
M  V30 15 1 18 7
M  V30 16 1 18 11
M  V30 17 2 19 12
M  V30 18 1 20 3
M  V30 19 1 20 17
M  V30 20 1 22 6
M  V30 21 1 22 7
M  V30 22 1 22 16
M  V30 23 1 23 15
M  V30 24 2 24 2
M  V30 25 1 24 13
M  V30 26 1 24 21
M  V30 27 1 25 1
M  V30 28 1 26 1
M  V30 29 1 3 27 CFG=3
M  V30 30 1 28 4
M  V30 31 1 29 4
M  V30 32 1 30 5
M  V30 33 1 31 5
M  V30 34 1 32 5
M  V30 35 1 33 6
M  V30 36 1 34 6
M  V30 37 1 7 35 CFG=3
M  V30 38 1 36 8
M  V30 39 1 37 8
M  V30 40 1 38 9
M  V30 41 1 39 9
M  V30 42 1 40 11
M  V30 43 1 41 12
M  V30 44 1 42 13
M  V30 45 1 43 13
M  V30 46 1 44 14
M  V30 47 1 45 14
M  V30 48 1 46 15
M  V30 49 1 16 47 CFG=1
M  V30 50 1 17 48 CFG=3
M  V30 51 1 18 49 CFG=3
M  V30 52 1 50 20
M  V30 53 1 51 20
M  V30 54 1 22 52 CFG=1
M  V30 55 1 53 23
M  V30 56 1 54 23
M  V30 57 1 55 23
M  V30 58 1 56 11
M  V30 END BOND
M  V30 END CTAB
M  END
>  <i_epik_Tot_Q>  (1) 
0

>  <i_epik_Tot_abs_Q>  (1) 
2

>  <i_i_glide_confnum>  (1) 
25

>  <i_i_glide_lignum>  (1) 
47

>  <i_i_glide_posenum>  (1) 
251

>  <i_i_glide_rotatable_bonds>  (1) 
7

>  <i_lp_mmshare_version>  (1) 
72125

>  <i_m_source_file_index>  (1) 
27

>  <i_f3d_flags>  (1) 
0

>  <num_sample>  (1) 
100

>  <b_lp_Chiralities_Consistent>  (1) 
1

>  <r_epik_Charging_Adjusted_Penalty>  (1) 
0.88863216281337021

>  <r_epik_Ionization_Penalty>  (1) 
0.10008493971951925

>  <r_epik_Ionization_Penalty_Charging>  (1) 
0.025347597467073411

>  <r_epik_Ionization_Penalty_Neutral>  (1) 
0.07473734225244584

>  <r_epik_State_Penalty>  (1) 
0.86328456534629683

>  <r_glide_ring_energy>  (1) 
0

>  <r_i_docking_score>  (1) 
-3.9253028937089693

>  <r_i_glide_ecoul>  (1) 
-6.319923803215822

>  <r_i_glide_eff_state_penalty>  (1) 
0.86328456534629683

>  <r_i_glide_einternal>  (1) 
4.1694196546671201

>  <r_i_glide_emodel>  (1) 
-23.980962000258543

>  <r_i_glide_emodel_strain>  (1) 
2.2561767890609872

>  <r_i_glide_energy>  (1) 
-21.420547670076573

>  <r_i_glide_erotb>  (1) 
0.66727664270853937

>  <r_i_glide_esite>  (1) 
-0.10000000000000001

>  <r_i_glide_evdw>  (1) 
-15.100623866860753

>  <r_i_glide_gscore>  (1) 
-4.7885874590552664

>  <r_i_glide_gscore_strain>  (1) 
0

>  <r_i_glide_hbond>  (1) 
-0.19940476184036532

>  <r_i_glide_ligand_efficiency>  (1) 
-0.16355428723787371

>  <r_i_glide_ligand_efficiency_ln>  (1) 
-0.93950510287754552

>  <r_i_glide_ligand_efficiency_sa>  (1) 
-0.47177220098151568

>  <r_i_glide_lipo>  (1) 
-1.7288741249544317

>  <r_i_glide_metal>  (1) 
-0

>  <r_i_glide_rewards>  (1) 
-1.7245654511435979

>  <r_lp_Energy>  (1) 
21.078503999999999

>  <s_epik_cmdline>  (1) 
J2VwaWtfcHl0aG9uJywgJy1waHQnLCAnMS4wJywgJy1waCcsICc3LjQnLCAnLXRuJywgJzgnLCAnLW1hJywgJzUwMCcsICctaW1hZScsICc8aW5maWxlLm1hZT4nLCAnLW9tYWUnLCAnPG91dGZpbGUubWFlPic=

>  <s_epik_input>  (1) 
W0NIM11bQ0hdKFtDSDNdKVtDQEhdKFtDSF09TylbQ0gyXVtDQEBIXShbQ0gyXTEpW0NIMl1bQ0BIXTJbQ0BASF0xW0NIMl1bQ0gyXU4oW0NAQEhdMjMpW0NIMl1bQ0gyXVtDQEBIXTNbTkhdW0NIMl1DKD1PKVtPSF0=

>  <s_glide_docking_method>  (1) 
confgen

>  <s_i_glide_gridfile>  (1) 
gpcr_drd2_6luq_protein_autoprepared_prepared

>  <s_lp_Force_Field>  (1) 
S-OPLS

>  <s_lp_Variant>  (1) 
DiffSBDD_26-3

>  <s_m_source_file>  (1) 
generated_generic_title2_ligand_DiffSBDD_2026-06-23_prepared.sdf

>  <GenAI_Model>  (1) 
DiffSBDD

>  <Protein>  (1) 
generic_title2

$$$$
DiffSBDD_90
     RDKit          3D

  0  0  0  0  0  0  0  0  0  0999 V3000
M  V30 BEGIN CTAB
M  V30 COUNTS 80 84 0 0 1
M  V30 BEGIN ATOM
M  V30 1 C 7.523926 6.643140 -13.789822 0
M  V30 2 C 8.721952 5.834897 -13.234298 0 CFG=1
M  V30 3 C 9.927805 7.526718 -10.208192 0
M  V30 4 C 8.792435 3.993842 -18.465923 0 CFG=2
M  V30 5 C 10.870701 6.790290 -12.035678 0
M  V30 6 C 9.872273 8.176013 -8.914878 0 CFG=2
M  V30 7 C 7.138244 3.121331 -15.180121 0 CFG=2
M  V30 8 O 6.881742 5.969843 -16.056206 0
M  V30 9 C 6.804695 5.612265 -14.696808 0 CFG=1
M  V30 10 C 9.266055 4.677824 -20.908917 0
M  V30 11 O 5.987356 7.177798 -19.455842 0
M  V30 12 C 9.523572 6.489229 -12.130047 0
M  V30 13 C 7.272203 3.990059 -12.027084 0 CFG=2
M  V30 14 O 8.139592 6.790235 -18.942731 0 CHG=-1
M  V30 15 O 9.795526 2.995064 -18.533680 0
M  V30 16 C 7.991705 2.719038 -16.428048 0 CFG=2
M  V30 17 N 7.734558 3.699361 -17.484439 0
M  V30 18 N 7.576258 4.384213 -14.550937 0
M  V30 19 C 5.587611 3.351094 -20.924191 0
M  V30 20 C 7.669175 1.321443 -17.031842 0
M  V30 21 O 7.536135 4.567872 -10.770333 0
M  V30 22 O 8.348306 0.265773 -16.384074 0
M  V30 23 O 7.775402 0.750893 -12.395419 0
M  V30 24 C 8.426662 3.115151 -12.497907 0 CFG=1
M  V30 25 C 7.023429 6.474463 -19.407758 0
M  V30 26 C 6.903285 1.984634 -14.174627 0
M  V30 27 N 11.028795 7.431434 -10.837540 0
M  V30 28 O 5.752128 2.337521 -20.242591 0
M  V30 29 C 11.365990 8.750966 -9.053818 0
M  V30 30 N 8.975362 6.967379 -10.950317 0 CHG=1
M  V30 31 C 8.203199 4.182237 -19.900502 0 CFG=2
M  V30 32 O 10.175383 7.310181 -5.585129 0
M  V30 33 O 9.824701 7.222460 -7.863786 0
M  V30 34 C 9.357091 7.699101 -6.642996 0
M  V30 35 C 5.085759 3.240056 -22.359732 0
M  V30 36 C 6.905800 5.071713 -19.984580 0
M  V30 37 C 8.104007 1.816067 -13.245453 0 CFG=2
M  V30 38 C 11.278876 8.158591 -5.335691 0
M  V30 39 N 5.809009 4.654388 -20.523760 0
M  V30 40 C 12.175350 7.994751 -10.208179 0
M  V30 41 C 8.130033 4.426181 -13.206441 0 CFG=1
M  V30 42 H 6.858517 6.927087 -12.973587 0
M  V30 43 H 7.786751 7.561706 -14.312140 0
M  V30 44 H 9.454246 5.787467 -14.042224 0
M  V30 45 H 9.320672 4.890368 -18.142025 0
M  V30 46 H 11.690007 6.617268 -12.718928 0
M  V30 47 H 9.078602 8.925200 -8.920528 0
M  V30 48 H 6.175408 3.324663 -15.585012 0
M  V30 49 H 6.758609 6.902865 -16.157667 0
M  V30 50 H 5.767364 5.470798 -14.389208 0
M  V30 51 H 8.836330 4.795884 -21.904360 0
M  V30 52 H 9.690525 5.638898 -20.617818 0
M  V30 53 H 10.093742 3.975606 -21.000906 0
M  V30 54 H 6.224781 3.742527 -12.178338 0
M  V30 55 H 9.837839 2.676705 -19.421696 0
M  V30 56 H 9.039199 2.757607 -16.142195 0
M  V30 57 H 7.468819 4.581330 -17.031287 0
M  V30 58 H 7.965456 1.265377 -18.079203 0
M  V30 59 H 6.594419 1.133980 -17.029031 0
M  V30 60 H 7.061527 4.089560 -10.105226 0
M  V30 61 H 7.912300 0.071953 -15.568000 0
M  V30 62 H 8.460473 0.712683 -11.730887 0
M  V30 63 H 9.322764 3.084301 -11.879700 0
M  V30 64 H 6.002373 2.191215 -13.598714 0
M  V30 65 H 6.654340 1.046185 -14.663216 0
M  V30 66 H 11.288977 9.790221 -9.373283 0
M  V30 67 H 11.917527 8.788461 -8.121493 0
M  V30 68 H 7.997951 3.171942 -20.236375 0
M  V30 69 H 9.192251 8.779872 -6.632251 0
M  V30 70 H 8.388395 7.225688 -6.480862 0
M  V30 71 H 5.873474 3.534242 -23.053158 0
M  V30 72 H 4.789905 2.216580 -22.595230 0
M  V30 73 H 4.230466 3.898014 -22.515689 0
M  V30 74 H 8.975341 1.511857 -13.817130 0
M  V30 75 H 11.798467 7.820598 -4.438586 0
M  V30 76 H 11.985324 8.126885 -6.157131 0
M  V30 77 H 10.966437 9.190802 -5.174325 0
M  V30 78 H 12.792197 7.190553 -9.814355 0
M  V30 79 H 12.740030 8.650564 -10.867894 0
M  V30 80 H 7.990982 6.912056 -10.681984 0
M  V30 END ATOM
M  V30 BEGIN BOND
M  V30 1 1 2 1
M  V30 2 1 6 3
M  V30 3 1 9 1
M  V30 4 1 9 8
M  V30 5 1 12 2
M  V30 6 2 12 5
M  V30 7 1 15 4
M  V30 8 1 16 7
M  V30 9 1 17 4
M  V30 10 1 17 16
M  V30 11 1 18 7
M  V30 12 1 18 9
M  V30 13 1 20 16
M  V30 14 1 21 13
M  V30 15 1 22 20
M  V30 16 1 24 13
M  V30 17 2 25 11
M  V30 18 1 25 14
M  V30 19 1 26 7
M  V30 20 1 27 3
M  V30 21 1 27 5
M  V30 22 2 28 19
M  V30 23 1 29 6
M  V30 24 2 30 3
M  V30 25 1 30 12
M  V30 26 1 31 4
M  V30 27 1 31 10
M  V30 28 1 33 6
M  V30 29 1 34 32
M  V30 30 1 34 33
M  V30 31 1 35 19
M  V30 32 1 36 25
M  V30 33 1 36 31
M  V30 34 1 37 23
M  V30 35 1 37 24
M  V30 36 1 37 26
M  V30 37 1 38 32
M  V30 38 1 39 19
M  V30 39 2 39 36
M  V30 40 1 40 27
M  V30 41 1 40 29
M  V30 42 1 41 2
M  V30 43 1 41 13
M  V30 44 1 41 18 CFG=3
M  V30 45 1 41 24
M  V30 46 1 42 1
M  V30 47 1 43 1
M  V30 48 1 2 44 CFG=3
M  V30 49 1 4 45 CFG=1
M  V30 50 1 46 5
M  V30 51 1 6 47 CFG=3
M  V30 52 1 7 48 CFG=3
M  V30 53 1 49 8
M  V30 54 1 9 50 CFG=1
M  V30 55 1 51 10
M  V30 56 1 52 10
M  V30 57 1 53 10
M  V30 58 1 13 54 CFG=3
M  V30 59 1 55 15
M  V30 60 1 16 56 CFG=1
M  V30 61 1 57 17
M  V30 62 1 58 20
M  V30 63 1 59 20
M  V30 64 1 60 21
M  V30 65 1 61 22
M  V30 66 1 62 23
M  V30 67 1 24 63 CFG=1
M  V30 68 1 64 26
M  V30 69 1 65 26
M  V30 70 1 66 29
M  V30 71 1 67 29
M  V30 72 1 31 68 CFG=3
M  V30 73 1 69 34
M  V30 74 1 70 34
M  V30 75 1 71 35
M  V30 76 1 72 35
M  V30 77 1 73 35
M  V30 78 1 37 74 CFG=3
M  V30 79 1 75 38
M  V30 80 1 76 38
M  V30 81 1 77 38
M  V30 82 1 78 40
M  V30 83 1 79 40
M  V30 84 1 80 30
M  V30 END BOND
M  V30 END CTAB
M  END
>  <i_epik_Tot_Q>  (1) 
0

>  <i_epik_Tot_abs_Q>  (1) 
2

>  <i_i_glide_confnum>  (1) 
2281

>  <i_i_glide_lignum>  (1) 
172

>  <i_i_glide_posenum>  (1) 
21

>  <i_i_glide_rotatable_bonds>  (1) 
17

>  <i_lp_mmshare_version>  (1) 
72125

>  <i_m_source_file_index>  (1) 
91

>  <i_f3d_flags>  (1) 
0

>  <num_sample>  (1) 
100

>  <b_lp_Chiralities_Consistent>  (1) 
1

>  <r_epik_Charging_Adjusted_Penalty>  (1) 
1.2730775069092737

>  <r_epik_Ionization_Penalty>  (1) 
0.33079184029548347

>  <r_epik_Ionization_Penalty_Charging>  (1) 
4.3976256739559524e-06

>  <r_epik_Ionization_Penalty_Neutral>  (1) 
0.33078744266980953

>  <r_epik_State_Penalty>  (1) 
1.2730731092835996

>  <r_glide_ring_energy>  (1) 
0

>  <r_i_docking_score>  (1) 
-3.923944202881994

>  <r_i_glide_ecoul>  (1) 
-8.3210358900625536

>  <r_i_glide_eff_state_penalty>  (1) 
1.2730731092835996

>  <r_i_glide_einternal>  (1) 
30.501947967170921

>  <r_i_glide_emodel>  (1) 
-31.710772702283919

>  <r_i_glide_emodel_strain>  (1) 
5.1535633200835491

>  <r_i_glide_energy>  (1) 
-38.529466027539307

>  <r_i_glide_erotb>  (1) 
0.57888693115673628

>  <r_i_glide_esite>  (1) 
-0.24653305805398601

>  <r_i_glide_evdw>  (1) 
-30.208430137476753

>  <r_i_glide_gscore>  (1) 
-5.1970173121655936

>  <r_i_glide_gscore_strain>  (1) 
0.28839083002088728

>  <r_i_glide_hbond>  (1) 
-0.45459209588508664

>  <r_i_glide_ligand_efficiency>  (1) 
-0.095705956167853518

>  <r_i_glide_ligand_efficiency_ln>  (1) 
-0.83247782092903999

>  <r_i_glide_ligand_efficiency_sa>  (1) 
-0.33001492806530641

>  <r_i_glide_lipo>  (1) 
-2.0274148856125973

>  <r_i_glide_metal>  (1) 
-0

>  <r_i_glide_rewards>  (1) 
-0.57717814340832585

>  <r_lp_Energy>  (1) 
62.565444999999997

>  <s_epik_Chemistry_Notes>  (1) 
This compound has an imine and may undergo hydrolysis. This compound contains an acetal/aminal-like group ( X-CH(R)-Y where X, Y are N, S, or O) that may be acid/base labile, releasing an aldehyde.

>  <s_epik_cmdline>  (1) 
J2VwaWtfcHl0aG9uJywgJy1waHQnLCAnMS4wJywgJy1waCcsICc3LjQnLCAnLXRuJywgJzgnLCAnLW1hJywgJzUwMCcsICctaW1hZScsICc8aW5maWxlLm1hZT4nLCAnLW9tYWUnLCAnPG91dGZpbGUubWFlPic=

>  <s_epik_input>  (1) 
W0NIM11PW0NIMl1PW0NASF0xW0NIMl1bQ0gyXW4oYzEyKVtjSF1jKG4yKVtDQEBIXTNbQ0gyXVtDQEBIXShbT0hdKU4oW0NAQF0zNDUpW0NASF0oW0NIMl1bQ0BIXShbT0hdKVtDQEBIXTVbQ0BIXTRbT0hdKVtDQEBIXShbQ0gyXVtPSF0pW05IXVtDQEBIXShbT0hdKVtDQEhdKFtDSDNdKUMoXEMoPU8pW09IXSk9Ti9DKD1PKVtDSDNd

>  <s_glide_docking_method>  (1) 
confgen

>  <s_i_glide_gridfile>  (1) 
gpcr_drd2_6luq_protein_autoprepared_prepared

>  <s_lp_Force_Field>  (1) 
S-OPLS

>  <s_lp_Variant>  (1) 
DiffSBDD_90-7

>  <s_m_source_file>  (1) 
generated_generic_title2_ligand_DiffSBDD_2026-06-23_prepared.sdf

>  <GenAI_Model>  (1) 
DiffSBDD

>  <Protein>  (1) 
generic_title2

$$$$
DiffSBDD_17
     RDKit          3D

  0  0  0  0  0  0  0  0  0  0999 V3000
M  V30 BEGIN CTAB
M  V30 COUNTS 42 43 0 0 1
M  V30 BEGIN ATOM
M  V30 1 Cl 5.781658 4.860658 -11.948537 0
M  V30 2 C 8.122967 6.248324 -12.010116 0
M  V30 3 C 7.115758 5.550216 -12.926706 0 CFG=2
M  V30 4 C 11.975986 8.598051 -3.862150 0
M  V30 5 C 7.059707 4.530533 -15.177672 0
M  V30 6 O 8.532925 5.384469 -10.959605 0
M  V30 7 C 9.676697 6.195172 -7.547497 0
M  V30 8 Cl 12.068684 8.791082 -9.501745 0
M  V30 9 C 5.850186 6.483535 -16.374733 0
M  V30 10 O 10.591265 8.719421 -5.902865 0
M  V30 11 O 12.175567 8.780920 -1.617867 0
M  V30 12 C 9.221687 5.985131 -9.933998 0
M  V30 13 O 5.371748 7.633452 -16.258946 0
M  V30 14 C 11.399280 7.831167 -6.661006 0
M  V30 15 C 10.175384 6.992380 -10.201361 0
M  V30 16 C 10.885766 7.589584 -9.148673 0
M  V30 17 C 6.020512 5.667331 -15.082788 0 CFG=2
M  V30 18 C 8.976721 5.589142 -8.606632 0
M  V30 19 C 6.514673 6.538131 -13.927261 0
M  V30 20 O 6.192861 5.937157 -17.446910 0 CHG=-1
M  V30 21 C 11.300822 9.481305 -4.928995 0
M  V30 22 C 7.739360 4.444229 -13.799345 0
M  V30 23 C 10.635683 7.194660 -7.812121 0
M  V30 24 N 12.172111 9.440881 -2.635177 0
M  V30 25 H 7.667062 7.146641 -11.590828 0
M  V30 26 H 8.972500 6.567880 -12.613361 0
M  V30 27 H 11.375410 7.725232 -3.600998 0
M  V30 28 H 12.965767 8.271578 -4.169753 0
M  V30 29 H 7.819104 4.734493 -15.936940 0
M  V30 30 H 6.582963 3.587484 -15.444836 0
M  V30 31 H 9.481420 5.890105 -6.531138 0
M  V30 32 H 11.759934 7.019831 -6.027630 0
M  V30 33 H 12.286298 8.359166 -7.005471 0
M  V30 34 H 10.376794 7.298711 -11.215450 0
M  V30 35 H 5.058070 5.246524 -14.797942 0
M  V30 36 H 8.246318 4.820883 -8.400394 0
M  V30 37 H 5.717189 7.136043 -13.484070 0
M  V30 38 H 7.285911 7.225088 -14.282145 0
M  V30 39 H 12.035428 10.128236 -5.412683 0
M  V30 40 H 10.576257 10.146396 -4.458789 0
M  V30 41 H 8.812842 4.602433 -13.920201 0
M  V30 42 H 7.620049 3.459332 -13.344642 0
M  V30 END ATOM
M  V30 BEGIN BOND
M  V30 1 1 3 1 CFG=1
M  V30 2 1 3 2
M  V30 3 1 6 2
M  V30 4 1 12 6
M  V30 5 2 13 9
M  V30 6 1 14 10
M  V30 7 2 15 12
M  V30 8 1 16 8
M  V30 9 1 16 15
M  V30 10 1 17 5
M  V30 11 1 17 9
M  V30 12 2 18 7
M  V30 13 1 18 12
M  V30 14 1 19 3
M  V30 15 1 19 17
M  V30 16 1 20 9
M  V30 17 1 21 4
M  V30 18 1 21 10
M  V30 19 1 22 3
M  V30 20 1 22 5
M  V30 21 1 23 7
M  V30 22 1 23 14
M  V30 23 2 23 16
M  V30 24 1 24 4
M  V30 25 2 24 11
M  V30 26 1 25 2
M  V30 27 1 26 2
M  V30 28 1 27 4
M  V30 29 1 28 4
M  V30 30 1 29 5
M  V30 31 1 30 5
M  V30 32 1 31 7
M  V30 33 1 32 14
M  V30 34 1 33 14
M  V30 35 1 34 15
M  V30 36 1 17 35 CFG=1
M  V30 37 1 36 18
M  V30 38 1 37 19
M  V30 39 1 38 19
M  V30 40 1 39 21
M  V30 41 1 40 21
M  V30 42 1 41 22
M  V30 43 1 42 22
M  V30 END BOND
M  V30 END CTAB
M  END
>  <i_epik_Tot_Q>  (1) 
-1

>  <i_epik_Tot_abs_Q>  (1) 
1

>  <i_i_glide_confnum>  (1) 
371

>  <i_i_glide_lignum>  (1) 
32

>  <i_i_glide_posenum>  (1) 
162

>  <i_i_glide_rotatable_bonds>  (1) 
9

>  <i_lp_mmshare_version>  (1) 
72125

>  <i_m_source_file_index>  (1) 
18

>  <i_f3d_flags>  (1) 
0

>  <num_sample>  (1) 
100

>  <b_lp_Chiralities_Consistent>  (1) 
1

>  <r_epik_Charging_Adjusted_Penalty>  (1) 
0.00012381605781317179

>  <r_epik_Ionization_Penalty>  (1) 
0.00012381605830283167

>  <r_epik_Ionization_Penalty_Charging>  (1) 
0.00012381605781317179

>  <r_epik_Ionization_Penalty_Neutral>  (1) 
4.8965987375008979e-13

>  <r_epik_State_Penalty>  (1) 
-0

>  <r_glide_ring_energy>  (1) 
0

>  <r_i_docking_score>  (1) 
-3.9232812187759842

>  <r_i_glide_ecoul>  (1) 
1.6155860726613804

>  <r_i_glide_eff_state_penalty>  (1) 
-0

>  <r_i_glide_einternal>  (1) 
9.8132828856827885

>  <r_i_glide_emodel>  (1) 
-35.624592858218698

>  <r_i_glide_emodel_strain>  (1) 
3.8194184016381669

>  <r_i_glide_energy>  (1) 
-36.616648468074992

>  <r_i_glide_erotb>  (1) 
0.96174401237487195

>  <r_i_glide_esite>  (1) 
0

>  <r_i_glide_evdw>  (1) 
-38.232234540736371

>  <r_i_glide_gscore>  (1) 
-3.9232812187759842

>  <r_i_glide_gscore_strain>  (1) 
0

>  <r_i_glide_hbond>  (1) 
0

>  <r_i_glide_ligand_efficiency>  (1) 
-0.16347005078233268

>  <r_i_glide_ligand_efficiency_ln>  (1) 
-0.9390212232974644

>  <r_i_glide_ligand_efficiency_sa>  (1) 
-0.47152922099789907

>  <r_i_glide_lipo>  (1) 
-1.7619765957237625

>  <r_i_glide_metal>  (1) 
-0

>  <r_i_glide_rewards>  (1) 
-1.4537748192894826

>  <r_lp_Energy>  (1) 
24.982256

>  <r_lp_tautomer_probability>  (1) 
1

>  <s_epik_cmdline>  (1) 
J2VwaWtfcHl0aG9uJywgJy1waHQnLCAnMS4wJywgJy1waCcsICc3LjQnLCAnLXRuJywgJzgnLCAnLW1hJywgJzUwMCcsICctaW1hZScsICc8aW5maWxlLm1hZT4nLCAnLW9tYWUnLCAnPG91dGZpbGUubWFlPic=

>  <s_epik_input>  (1) 
Tz1DKFtPSF0pW0NAQEhdKFtDSDJdW0NIMl0xKVtDSDJdW0NAXTEoQ2wpW0NIMl1PYzJbY0hdYyhDbCljKFtjSF1bY0hdMilbQ0gyXU9bQ0gyXVtDSDJdTj1P

>  <s_glide_docking_method>  (1) 
confgen

>  <s_i_glide_gridfile>  (1) 
gpcr_drd2_6luq_protein_autoprepared_prepared

>  <s_lp_Force_Field>  (1) 
S-OPLS

>  <s_lp_Variant>  (1) 
DiffSBDD_17-1

>  <s_m_source_file>  (1) 
generated_generic_title2_ligand_DiffSBDD_2026-06-23_prepared.sdf

>  <GenAI_Model>  (1) 
DiffSBDD

>  <Protein>  (1) 
generic_title2

$$$$
DiffSBDD_88
     RDKit          3D

  0  0  0  0  0  0  0  0  0  0999 V3000
M  V30 BEGIN CTAB
M  V30 COUNTS 36 37 0 0 1
M  V30 BEGIN ATOM
M  V30 1 C 7.538962 6.638377 -12.385059 0 CFG=1
M  V30 2 F 5.375410 7.028185 -13.179241 0
M  V30 3 C 9.660528 5.924818 -8.156701 0
M  V30 4 C 10.215253 6.389422 -6.806401 0
M  V30 5 O 10.090285 7.989755 -11.085751 0
M  V30 6 O 8.974675 8.390094 -6.385727 0
M  V30 7 O 7.967577 6.885661 -13.587933 0 CHG=-1
M  V30 8 C 10.210629 7.914416 -6.863518 0 CFG=2
M  V30 9 C 8.217583 4.111915 -12.265594 0
M  V30 10 N 9.945716 7.059963 -9.030299 0
M  V30 11 C 6.085856 6.126044 -12.508321 0 CFG=1
M  V30 12 F 6.578613 2.461717 -12.785813 0
M  V30 13 C 6.728551 3.696719 -12.302008 0 CFG=2
M  V30 14 C 9.826229 7.013874 -10.379020 0
M  V30 15 C 6.175485 4.621878 -14.622847 0
M  V30 16 N 9.375924 5.768849 -10.846898 0
M  V30 17 C 8.463462 5.538594 -11.743637 0
M  V30 18 C 10.356023 8.273332 -8.344357 0
M  V30 19 C 5.894720 4.705575 -13.108424 0 CFG=2
M  V30 20 H 7.460889 7.449990 -11.661523 0
M  V30 21 H 8.581028 5.769874 -8.105384 0
M  V30 22 H 10.138002 4.997310 -8.478357 0
M  V30 23 H 11.244534 6.039133 -6.710919 0
M  V30 24 H 9.659583 5.990875 -5.957335 0
M  V30 25 H 8.280078 7.983666 -6.893126 0
M  V30 26 H 11.007003 8.348007 -6.258571 0
M  V30 27 H 8.655348 4.026330 -13.261308 0
M  V30 28 H 8.773506 3.409787 -11.643074 0
M  V30 29 H 5.652873 6.124651 -11.506058 0
M  V30 30 H 6.343590 3.658219 -11.281597 0
M  V30 31 H 7.157990 4.984839 -14.912609 0
M  V30 32 H 6.175155 3.588594 -14.960019 0
M  V30 33 H 5.440046 5.191059 -15.190324 0
M  V30 34 H 9.743181 9.128317 -8.637384 0
M  V30 35 H 11.396028 8.494126 -8.589113 0
M  V30 36 H 4.850160 4.424873 -12.975967 0
M  V30 END ATOM
M  V30 BEGIN BOND
M  V30 1 1 4 3
M  V30 2 1 7 1
M  V30 3 1 8 4
M  V30 4 1 8 6
M  V30 5 1 10 3
M  V30 6 1 11 1
M  V30 7 1 11 2
M  V30 8 1 13 9
M  V30 9 1 13 12
M  V30 10 2 14 5
M  V30 11 1 14 10
M  V30 12 1 16 14
M  V30 13 1 17 1
M  V30 14 1 17 9
M  V30 15 2 17 16
M  V30 16 1 18 8
M  V30 17 1 18 10
M  V30 18 1 19 11
M  V30 19 1 19 13
M  V30 20 1 19 15
M  V30 21 1 1 20 CFG=1
M  V30 22 1 21 3
M  V30 23 1 22 3
M  V30 24 1 23 4
M  V30 25 1 24 4
M  V30 26 1 25 6
M  V30 27 1 8 26 CFG=1
M  V30 28 1 27 9
M  V30 29 1 28 9
M  V30 30 1 11 29 CFG=1
M  V30 31 1 13 30 CFG=1
M  V30 32 1 31 15
M  V30 33 1 32 15
M  V30 34 1 33 15
M  V30 35 1 34 18
M  V30 36 1 35 18
M  V30 37 1 19 36 CFG=3
M  V30 END BOND
M  V30 END CTAB
M  END
>  <i_epik_Tot_Q>  (1) 
-1

>  <i_epik_Tot_abs_Q>  (1) 
1

>  <i_i_glide_confnum>  (1) 
14

>  <i_i_glide_lignum>  (1) 
162

>  <i_i_glide_posenum>  (1) 
385

>  <i_i_glide_rotatable_bonds>  (1) 
3

>  <i_lp_mmshare_version>  (1) 
72125

>  <i_m_source_file_index>  (1) 
89

>  <i_f3d_flags>  (1) 
0

>  <num_sample>  (1) 
100

>  <b_lp_Chiralities_Consistent>  (1) 
1

>  <r_epik_Charging_Adjusted_Penalty>  (1) 
1.6999520965461032

>  <r_epik_Ionization_Penalty>  (1) 
0.8499760961676609

>  <r_epik_Ionization_Penalty_Charging>  (1) 
0.84997604827305151

>  <r_epik_Ionization_Penalty_Neutral>  (1) 
4.7894609424591191e-08

>  <r_epik_State_Penalty>  (1) 
0.84997604827305173

>  <r_glide_ring_energy>  (1) 
0.47595862597002003

>  <r_i_docking_score>  (1) 
-3.9153836804374325

>  <r_i_glide_ecoul>  (1) 
-1.4181325294544902

>  <r_i_glide_eff_state_penalty>  (1) 
0.84997604827305173

>  <r_i_glide_einternal>  (1) 
1.8537079823201035

>  <r_i_glide_emodel>  (1) 
-34.137285604818672

>  <r_i_glide_emodel_strain>  (1) 
1.1183110933336167

>  <r_i_glide_energy>  (1) 
-29.472751186033648

>  <r_i_glide_erotb>  (1) 
0.4743209619600951

>  <r_i_glide_esite>  (1) 
-0.17986677317190955

>  <r_i_glide_evdw>  (1) 
-28.054618656579159

>  <r_i_glide_gscore>  (1) 
-4.7653597287104841

>  <r_i_glide_gscore_strain>  (1) 
0

>  <r_i_glide_hbond>  (1) 
-0.092236732522547313

>  <r_i_glide_ligand_efficiency>  (1) 
-0.20607282528618065

>  <r_i_glide_ligand_efficiency_ln>  (1) 
-0.99263385772159973

>  <r_i_glide_ligand_efficiency_sa>  (1) 
-0.5498850667504338

>  <r_i_glide_lipo>  (1) 
-0.89003413282965405

>  <r_i_glide_metal>  (1) 
-0

>  <r_i_glide_rewards>  (1) 
-2.462092239899337

>  <r_lp_Energy>  (1) 
36.246699999999997

>  <s_epik_Chemistry_Notes>  (1) 
This compound has an imine and may undergo hydrolysis.

>  <s_epik_cmdline>  (1) 
J2VwaWtfcHl0aG9uJywgJy1waHQnLCAnMS4wJywgJy1waCcsICc3LjQnLCAnLXRuJywgJzgnLCAnLW1hJywgJzUwMCcsICctaW1hZScsICc8aW5maWxlLm1hZT4nLCAnLW9tYWUnLCAnPG91dGZpbGUubWFlPic=

>  <s_epik_input>  (1) 
W09IXVtDQEhdMVtDQEBIXShGKVtDQEBIXShbQ0gzXSlbQ0BASF0oRilbQ0gyXUNcMT1OXEMoPU8pTihbQ0gyXTIpW0NIMl1bQ0gyXVtDQEBIXTJbT0hd

>  <s_glide_docking_method>  (1) 
confgen

>  <s_i_glide_gridfile>  (1) 
gpcr_drd2_6luq_protein_autoprepared_prepared

>  <s_lp_Force_Field>  (1) 
S-OPLS

>  <s_lp_Variant>  (1) 
DiffSBDD_88-3

>  <s_m_source_file>  (1) 
generated_generic_title2_ligand_DiffSBDD_2026-06-23_prepared.sdf

>  <GenAI_Model>  (1) 
DiffSBDD

>  <Protein>  (1) 
generic_title2

$$$$
DiffSBDD_88
     RDKit          3D

  0  0  0  0  0  0  0  0  0  0999 V3000
M  V30 BEGIN CTAB
M  V30 COUNTS 36 37 0 0 1
M  V30 BEGIN ATOM
M  V30 1 C 8.975414 6.750056 -11.924421 0 CFG=1
M  V30 2 F 7.429113 7.565953 -13.582026 0
M  V30 3 C 10.149030 6.790226 -6.919566 0
M  V30 4 C 10.891717 7.206969 -5.653382 0
M  V30 5 O 11.214432 7.990215 -10.149699 0
M  V30 6 O 10.575437 9.590228 -5.603532 0
M  V30 7 O 9.604154 5.990229 -12.785026 0 CHG=-1
M  V30 8 C 11.484163 8.586938 -5.963174 0 CFG=2
M  V30 9 C 8.021320 4.790227 -10.503189 0
M  V30 10 N 10.814326 7.563481 -7.965437 0
M  V30 11 C 7.496664 6.964922 -12.391161 0 CFG=1
M  V30 12 F 5.815118 4.002602 -10.900418 0
M  V30 13 C 6.573258 5.100903 -10.943173 0 CFG=2
M  V30 14 C 10.621809 7.335916 -9.288488 0
M  V30 15 C 6.739356 4.720315 -13.486276 0
M  V30 16 N 9.701930 6.300826 -9.523691 0
M  V30 17 C 8.975409 5.990028 -10.556242 0
M  V30 18 C 11.709871 8.604885 -7.482143 0
M  V30 19 C 6.532595 5.742962 -12.345722 0 CFG=2
M  V30 20 H 9.317168 7.767155 -11.743736 0
M  V30 21 H 9.094376 7.069285 -6.869783 0
M  V30 22 H 10.219586 5.711023 -7.067418 0
M  V30 23 H 11.701415 6.499545 -5.468212 0
M  V30 24 H 10.239803 7.190236 -4.785006 0
M  V30 25 H 9.780328 9.434581 -6.092572 0
M  V30 26 H 12.400295 8.790228 -5.408682 0
M  V30 27 H 8.436986 3.990229 -11.116637 0
M  V30 28 H 7.999101 4.403745 -9.483890 0
M  V30 29 H 7.070817 7.706809 -11.712768 0
M  V30 30 H 6.127936 5.789095 -10.224284 0
M  V30 31 H 7.691938 4.197866 -13.402027 0
M  V30 32 H 5.952348 3.966393 -13.486128 0
M  V30 33 H 6.720421 5.211196 -14.459096 0
M  V30 34 H 11.514478 9.579348 -7.931202 0
M  V30 35 H 12.737174 8.323631 -7.718843 0
M  V30 36 H 5.524524 6.136032 -12.484452 0
M  V30 END ATOM
M  V30 BEGIN BOND
M  V30 1 1 4 3
M  V30 2 1 7 1
M  V30 3 1 8 4
M  V30 4 1 8 6
M  V30 5 1 10 3
M  V30 6 1 11 1
M  V30 7 1 11 2
M  V30 8 1 13 9
M  V30 9 1 13 12
M  V30 10 2 14 5
M  V30 11 1 14 10
M  V30 12 1 16 14
M  V30 13 1 17 1
M  V30 14 1 17 9
M  V30 15 2 17 16
M  V30 16 1 18 8
M  V30 17 1 18 10
M  V30 18 1 19 11
M  V30 19 1 19 13
M  V30 20 1 19 15
M  V30 21 1 1 20 CFG=1
M  V30 22 1 21 3
M  V30 23 1 22 3
M  V30 24 1 23 4
M  V30 25 1 24 4
M  V30 26 1 25 6
M  V30 27 1 8 26 CFG=1
M  V30 28 1 27 9
M  V30 29 1 28 9
M  V30 30 1 11 29 CFG=1
M  V30 31 1 13 30 CFG=1
M  V30 32 1 31 15
M  V30 33 1 32 15
M  V30 34 1 33 15
M  V30 35 1 34 18
M  V30 36 1 35 18
M  V30 37 1 19 36 CFG=3
M  V30 END BOND
M  V30 END CTAB
M  END
>  <i_epik_Tot_Q>  (1) 
-1

>  <i_epik_Tot_abs_Q>  (1) 
1

>  <i_i_glide_confnum>  (1) 
14

>  <i_i_glide_lignum>  (1) 
162

>  <i_i_glide_posenum>  (1) 
343

>  <i_i_glide_rotatable_bonds>  (1) 
3

>  <i_lp_mmshare_version>  (1) 
72125

>  <i_m_source_file_index>  (1) 
89

>  <i_f3d_flags>  (1) 
0

>  <num_sample>  (1) 
100

>  <b_lp_Chiralities_Consistent>  (1) 
1

>  <r_epik_Charging_Adjusted_Penalty>  (1) 
1.6999520965461032

>  <r_epik_Ionization_Penalty>  (1) 
0.8499760961676609

>  <r_epik_Ionization_Penalty_Charging>  (1) 
0.84997604827305151

>  <r_epik_Ionization_Penalty_Neutral>  (1) 
4.7894609424591191e-08

>  <r_epik_State_Penalty>  (1) 
0.84997604827305173

>  <r_glide_ring_energy>  (1) 
0.47595862597002003

>  <r_i_docking_score>  (1) 
-3.9143472932538415

>  <r_i_glide_ecoul>  (1) 
-0.53464487962125973

>  <r_i_glide_eff_state_penalty>  (1) 
0.84997604827305173

>  <r_i_glide_einternal>  (1) 
0.68329905407922631

>  <r_i_glide_emodel>  (1) 
-38.54453644906782

>  <r_i_glide_emodel_strain>  (1) 
1.2403381499608912

>  <r_i_glide_energy>  (1) 
-33.418283871821572

>  <r_i_glide_erotb>  (1) 
0.4743209619600951

>  <r_i_glide_esite>  (1) 
-0.1071251876517984

>  <r_i_glide_evdw>  (1) 
-32.883638992200311

>  <r_i_glide_gscore>  (1) 
-4.7643233415268931

>  <r_i_glide_gscore_strain>  (1) 
0

>  <r_i_glide_hbond>  (1) 
0

>  <r_i_glide_ligand_efficiency>  (1) 
-0.20601827859230745

>  <r_i_glide_ligand_efficiency_ln>  (1) 
-0.99237111131100375

>  <r_i_glide_ligand_efficiency_sa>  (1) 
-0.54973951426257028

>  <r_i_glide_lipo>  (1) 
-1.019510108515667

>  <r_i_glide_metal>  (1) 
-0

>  <r_i_glide_rewards>  (1) 
-2.3876303257663185

>  <r_lp_Energy>  (1) 
36.246699999999997

>  <s_epik_Chemistry_Notes>  (1) 
This compound has an imine and may undergo hydrolysis.

>  <s_epik_cmdline>  (1) 
J2VwaWtfcHl0aG9uJywgJy1waHQnLCAnMS4wJywgJy1waCcsICc3LjQnLCAnLXRuJywgJzgnLCAnLW1hJywgJzUwMCcsICctaW1hZScsICc8aW5maWxlLm1hZT4nLCAnLW9tYWUnLCAnPG91dGZpbGUubWFlPic=

>  <s_epik_input>  (1) 
W09IXVtDQEhdMVtDQEBIXShGKVtDQEBIXShbQ0gzXSlbQ0BASF0oRilbQ0gyXUNcMT1OXEMoPU8pTihbQ0gyXTIpW0NIMl1bQ0gyXVtDQEBIXTJbT0hd

>  <s_glide_docking_method>  (1) 
confgen

>  <s_i_glide_gridfile>  (1) 
gpcr_drd2_6luq_protein_autoprepared_prepared

>  <s_lp_Force_Field>  (1) 
S-OPLS

>  <s_lp_Variant>  (1) 
DiffSBDD_88-3

>  <s_m_source_file>  (1) 
generated_generic_title2_ligand_DiffSBDD_2026-06-23_prepared.sdf

>  <GenAI_Model>  (1) 
DiffSBDD

>  <Protein>  (1) 
generic_title2

$$$$
DiffSBDD_2
     RDKit          3D

  0  0  0  0  0  0  0  0  0  0999 V3000
M  V30 BEGIN CTAB
M  V30 COUNTS 70 74 0 0 1
M  V30 BEGIN ATOM
M  V30 1 C 7.990856 5.190114 -10.197440 0
M  V30 2 N 8.385101 3.537731 -16.138052 0
M  V30 3 C 9.701991 5.062173 -18.711336 0
M  V30 4 C 5.774341 0.911040 -19.018986 0
M  V30 5 C 10.586847 1.295048 -19.176756 0
M  V30 6 C 10.916657 7.440670 -9.086671 0 CFG=1
M  V30 7 C 8.217612 0.555724 -19.753054 0
M  V30 8 O 6.632107 6.429847 -14.743325 0
M  V30 9 C 9.858619 6.769413 -9.947977 0
M  V30 10 C 7.615073 3.058924 -13.821703 0 CFG=2
M  V30 11 C 7.565700 2.612599 -18.400789 0
M  V30 12 C 7.050519 5.273806 -14.815059 0
M  V30 13 C 11.206589 3.676107 -17.294943 0
M  V30 14 C 12.268537 7.864536 -9.617151 0
M  V30 15 O 11.180618 8.788464 -9.515600 0
M  V30 16 O 6.712310 2.141946 -13.226658 0
M  V30 17 O 6.882885 3.474139 -18.957111 0
M  V30 18 C 9.053645 5.433754 -7.918405 0
M  V30 19 C 9.878949 6.390227 -7.091621 0
M  V30 20 C 9.654044 0.327644 -19.293315 0
M  V30 21 C 5.282731 -0.533735 -18.848176 0
M  V30 22 F 11.391677 8.099444 -6.797929 0
M  V30 23 C 8.735974 6.501126 -12.110891 0
M  V30 24 C 7.498196 4.710616 -16.177840 0
M  V30 25 C 8.975204 5.797411 -9.392366 0
M  V30 26 C 9.968533 3.618652 -18.221427 0
M  V30 27 C 7.268645 1.122062 -18.663767 0 CFG=1
M  V30 28 C 7.859873 5.548247 -11.550464 0
M  V30 29 C 9.730604 7.104873 -11.316433 0
M  V30 30 C 8.757370 2.952665 -17.454589 0 CFG=1
M  V30 31 C 6.748757 4.929186 -12.391415 0
M  V30 32 N 7.140672 4.455490 -13.728173 0
M  V30 33 C 10.710403 7.289867 -7.625410 0
M  V30 34 C 10.345247 2.769776 -19.477593 0
M  V30 35 C 7.775637 2.547432 -15.259682 0
M  V30 36 H 7.315285 4.467239 -9.763099 0
M  V30 37 H 10.485642 5.392507 -19.394381 0
M  V30 38 H 8.757324 5.164860 -19.242723 0
M  V30 39 H 9.710638 5.777077 -17.890475 0
M  V30 40 H 5.152271 1.541256 -18.383004 0
M  V30 41 H 5.577774 1.240043 -20.040983 0
M  V30 42 H 11.577331 1.033700 -18.833137 0
M  V30 43 H 7.854969 -0.411504 -20.099629 0
M  V30 44 H 8.202186 1.190993 -20.638893 0
M  V30 45 H 8.573017 2.997695 -13.301244 0
M  V30 46 H 12.073855 4.080513 -17.817802 0
M  V30 47 H 11.031674 4.313823 -16.427485 0
M  V30 48 H 11.488345 2.692715 -16.921063 0
M  V30 49 H 13.081168 8.065577 -8.921222 0
M  V30 50 H 12.553721 7.596587 -10.631209 0
M  V30 51 H 5.929026 2.601895 -12.968638 0
M  V30 52 H 8.037654 5.471638 -7.521916 0
M  V30 53 H 9.375649 4.402590 -7.806783 0
M  V30 54 H 9.770344 6.326495 -6.018934 0
M  V30 55 H 9.917792 -0.689579 -19.042479 0
M  V30 56 H 4.214611 -0.596614 -19.059520 0
M  V30 57 H 5.787722 -1.219925 -19.527197 0
M  V30 58 H 5.438762 -0.889908 -17.829484 0
M  V30 59 H 8.638195 6.782700 -13.147002 0
M  V30 60 H 6.575522 4.487048 -16.702558 0
M  V30 61 H 7.955038 5.527931 -16.726203 0
M  V30 62 H 7.455478 0.591058 -17.729825 0
M  V30 63 H 10.387805 7.841271 -11.753643 0
M  V30 64 H 9.177690 1.986449 -17.184137 0
M  V30 65 H 5.946757 5.666368 -12.465338 0
M  V30 66 H 6.292537 4.124323 -11.815923 0
M  V30 67 H 11.257280 3.156645 -19.933735 0
M  V30 68 H 9.588722 2.878508 -20.253944 0
M  V30 69 H 8.369240 1.632280 -15.223878 0
M  V30 70 H 6.802708 2.253976 -15.662154 0
M  V30 END ATOM
M  V30 BEGIN BOND
M  V30 1 1 9 6
M  V30 2 2 12 8
M  V30 3 1 14 6
M  V30 4 1 6 15 CFG=1
M  V30 5 1 15 14
M  V30 6 1 16 10
M  V30 7 2 17 11
M  V30 8 1 19 18
M  V30 9 2 20 5
M  V30 10 1 20 7
M  V30 11 1 21 4
M  V30 12 1 24 2
M  V30 13 1 24 12
M  V30 14 1 25 1
M  V30 15 2 25 9
M  V30 16 1 25 18
M  V30 17 1 26 3
M  V30 18 1 26 13
M  V30 19 1 27 4
M  V30 20 1 27 7
M  V30 21 1 27 11
M  V30 22 2 28 1
M  V30 23 1 28 23
M  V30 24 1 29 9
M  V30 25 2 29 23
M  V30 26 1 30 2
M  V30 27 1 30 11
M  V30 28 1 30 26
M  V30 29 1 31 28
M  V30 30 1 32 10
M  V30 31 1 32 12
M  V30 32 1 32 31
M  V30 33 1 33 6
M  V30 34 2 33 19
M  V30 35 1 33 22
M  V30 36 1 34 5
M  V30 37 1 34 26
M  V30 38 1 35 2
M  V30 39 1 35 10
M  V30 40 1 36 1
M  V30 41 1 37 3
M  V30 42 1 38 3
M  V30 43 1 39 3
M  V30 44 1 40 4
M  V30 45 1 41 4
M  V30 46 1 42 5
M  V30 47 1 43 7
M  V30 48 1 44 7
M  V30 49 1 10 45 CFG=1
M  V30 50 1 46 13
M  V30 51 1 47 13
M  V30 52 1 48 13
M  V30 53 1 49 14
M  V30 54 1 50 14
M  V30 55 1 51 16
M  V30 56 1 52 18
M  V30 57 1 53 18
M  V30 58 1 54 19
M  V30 59 1 55 20
M  V30 60 1 56 21
M  V30 61 1 57 21
M  V30 62 1 58 21
M  V30 63 1 59 23
M  V30 64 1 60 24
M  V30 65 1 61 24
M  V30 66 1 27 62 CFG=1
M  V30 67 1 63 29
M  V30 68 1 30 64 CFG=1
M  V30 69 1 65 31
M  V30 70 1 66 31
M  V30 71 1 67 34
M  V30 72 1 68 34
M  V30 73 1 69 35
M  V30 74 1 70 35
M  V30 END BOND
M  V30 END CTAB
M  END
>  <i_epik_Tot_Q>  (1) 
0

>  <i_epik_Tot_abs_Q>  (1) 
0

>  <i_i_glide_confnum>  (1) 
13

>  <i_i_glide_lignum>  (1) 
4

>  <i_i_glide_posenum>  (1) 
394

>  <i_i_glide_rotatable_bonds>  (1) 
5

>  <i_lp_mmshare_version>  (1) 
72125

>  <i_m_source_file_index>  (1) 
3

>  <i_f3d_flags>  (1) 
0

>  <num_sample>  (1) 
100

>  <b_lp_Chiralities_Consistent>  (1) 
1

>  <r_epik_Charging_Adjusted_Penalty>  (1) 
0.083814788405558657

>  <r_epik_Ionization_Penalty>  (1) 
0.083950354633568577

>  <r_epik_Ionization_Penalty_Charging>  (1) 
0

>  <r_epik_Ionization_Penalty_Neutral>  (1) 
0.083950354633568577

>  <r_epik_State_Penalty>  (1) 
0.083814788405558657

>  <r_glide_ring_energy>  (1) 
0.49974599929525609

>  <r_i_docking_score>  (1) 
-3.9111257491539924

>  <r_i_glide_ecoul>  (1) 
1.0016260188151489

>  <r_i_glide_eff_state_penalty>  (1) 
0.083814788405558657

>  <r_i_glide_einternal>  (1) 
4.9200224052456782

>  <r_i_glide_emodel>  (1) 
-43.403756600455196

>  <r_i_glide_emodel_strain>  (1) 
0

>  <r_i_glide_energy>  (1) 
-37.688338395866381

>  <r_i_glide_erotb>  (1) 
0.26141387589162818

>  <r_i_glide_esite>  (1) 
0

>  <r_i_glide_evdw>  (1) 
-38.689964414681533

>  <r_i_glide_gscore>  (1) 
-3.9949405375595508

>  <r_i_glide_gscore_strain>  (1) 
0

>  <r_i_glide_hbond>  (1) 
0

>  <r_i_glide_ligand_efficiency>  (1) 
-0.11174644997582835

>  <r_i_glide_ligand_efficiency_ln>  (1) 
-0.85857890469849496

>  <r_i_glide_ligand_efficiency_sa>  (1) 
-0.36553004779910675

>  <r_i_glide_lipo>  (1) 
-1.090682631526761

>  <r_i_glide_metal>  (1) 
-0

>  <r_i_glide_rewards>  (1) 
-1.3814174640126138

>  <r_lp_Energy>  (1) 
64.581304000000003

>  <r_lp_tautomer_probability>  (1) 
0.99999998000000001

>  <s_epik_Chemistry_Notes>  (1) 
This compound contains an acetal/aminal-like group ( X-CH(R)-Y where X, Y are N, S, or O) that may be acid/base labile, releasing an aldehyde.

>  <s_epik_cmdline>  (1) 
J2VwaWtfcHl0aG9uJywgJy1waHQnLCAnMS4wJywgJy1waCcsICc3LjQnLCAnLXRuJywgJzgnLCAnLW1hJywgJzUwMCcsICctaW1hZScsICc8aW5maWxlLm1hZT4nLCAnLW9tYWUnLCAnPG91dGZpbGUubWFlPic=

>  <s_epik_input>  (1) 
TzFbQ0gyXVtDQF0xMmMzYyhbQ0gyXVtDSF09QzJGKVtjSF1jKFtjSF1bY0hdMylbQ0gyXU4oW0NAQEhdKFtPSF0pW0NIMl00KUMoPU8pW0NIMl1ONFtDQEhdKEM1KFtDSDNdKVtDSDNdKUMoPU8pW0NAQEhdKFtDSDJdW0NIM10pW0NIMl0vW0NIXT1bQ0hdXFtDSDJdNQ==

>  <s_glide_docking_method>  (1) 
confgen

>  <s_i_glide_gridfile>  (1) 
gpcr_drd2_6luq_protein_autoprepared_prepared

>  <s_lp_Force_Field>  (1) 
S-OPLS

>  <s_lp_Variant>  (1) 
DiffSBDD_2-1

>  <s_m_source_file>  (1) 
generated_generic_title2_ligand_DiffSBDD_2026-06-23_prepared.sdf

>  <GenAI_Model>  (1) 
DiffSBDD

>  <Protein>  (1) 
generic_title2

$$$$
DiffSBDD_80
     RDKit          3D

  0  0  0  0  0  0  0  0  0  0999 V3000
M  V30 BEGIN CTAB
M  V30 COUNTS 80 86 0 0 1
M  V30 BEGIN ATOM
M  V30 1 C 12.033638 4.528805 -18.466020 0
M  V30 2 C 5.017536 -0.226830 -17.852502 0
M  V30 3 C 10.120494 1.228424 -20.411491 0
M  V30 4 O 7.027740 -0.628130 -16.597060 0
M  V30 5 N 15.117129 5.569294 -15.876638 0 CHG=1
M  V30 6 C 11.313827 -0.808733 -21.869167 0
M  V30 7 C 11.452193 1.384883 -20.842224 0
M  V30 8 C 6.419115 -0.782814 -17.651869 0
M  V30 9 C 13.592321 2.584379 -20.239071 0
M  V30 10 C 15.180259 5.771513 -18.706846 0 CFG=2
M  V30 11 C 15.446016 4.307059 -16.541416 0 CFG=2
M  V30 12 C 7.023816 -0.652755 -20.100676 0 CFG=2
M  V30 13 C 12.928994 7.025166 -18.741353 0 CFG=2
M  V30 14 O 10.829543 6.244285 -19.612312 0
M  V30 15 C 5.630146 -0.013315 -20.351229 0
M  V30 16 C 7.035015 -1.530429 -18.828606 0
M  V30 17 N 9.341572 2.045034 -19.708713 0
M  V30 18 O 13.775395 9.213431 -19.597559 0
M  V30 19 C 13.958723 6.261605 -16.464904 0
M  V30 20 C 12.055076 0.354391 -21.585341 0
M  V30 21 O 14.976423 7.890433 -17.728976 0
M  V30 22 C 11.368622 3.291337 -19.125337 0 CFG=2
M  V30 23 C 9.337095 4.389666 -20.376196 0
M  V30 24 C 12.065047 2.718320 -20.401151 0 CFG=2
M  V30 25 C 9.977522 -0.927854 -21.406591 0
M  V30 26 O 16.575928 3.990253 -15.986700 0 CHG=-1
M  V30 27 C 8.183506 0.333569 -20.103678 0
M  V30 28 C 14.242373 6.700879 -17.931981 0 CFG=1
M  V30 29 C 9.443910 0.163649 -20.673346 0
M  V30 30 N 8.009935 1.524918 -19.458641 0
M  V30 31 C 9.146790 3.735052 -17.943122 0
M  V30 32 C 4.974665 0.652492 -19.116750 0
M  V30 33 C 15.749231 4.556459 -18.004887 0 CFG=2
M  V30 34 C 12.151973 5.794245 -19.330996 0 CFG=2
M  V30 35 C 9.818493 3.372573 -19.294950 0 CFG=1
M  V30 36 C 9.183269 -2.186201 -21.703253 0
M  V30 37 O 16.543652 5.713352 -18.254626 0
M  V30 38 C 13.185387 7.977996 -19.950045 0
M  V30 39 C 10.213208 5.611015 -20.724442 0
M  V30 40 H 13.021939 4.212161 -18.153645 0
M  V30 41 H 11.518129 4.774569 -17.541400 0
M  V30 42 H 4.323527 -1.061486 -17.954509 0
M  V30 43 H 6.434072 -2.425174 -18.992085 0
M  V30 44 H 4.723648 0.334557 -16.966144 0
M  V30 45 H 15.934887 6.150900 -15.986829 0
M  V30 46 H 11.765082 -1.609796 -22.435447 0
M  V30 47 H 14.067817 2.226410 -21.151267 0
M  V30 48 H 14.058419 3.543279 -20.035040 0
M  V30 49 H 13.850735 1.897229 -19.432469 0
M  V30 50 H 15.100925 5.767445 -19.791328 0
M  V30 51 H 14.570513 3.658408 -16.489614 0
M  V30 52 H 7.079356 -1.310573 -20.951045 0
M  V30 53 H 12.256526 7.544178 -18.055293 0
M  V30 54 H 5.670661 0.686003 -21.187896 0
M  V30 55 H 4.970911 -0.818053 -20.673602 0
M  V30 56 H 8.044213 -1.862485 -18.583813 0
M  V30 57 H 13.164071 9.691490 -19.041596 0
M  V30 58 H 13.713119 7.124635 -15.843066 0
M  V30 59 H 13.102514 5.604530 -16.364890 0
M  V30 60 H 13.073208 0.447236 -21.930956 0
M  V30 61 H 14.800009 8.462959 -18.475505 0
M  V30 62 H 11.521403 2.517220 -18.369144 0
M  V30 63 H 8.344857 4.747260 -20.099028 0
M  V30 64 H 9.170067 3.866031 -21.318824 0
M  V30 65 H 11.900241 3.401007 -21.231590 0
M  V30 66 H 9.359249 4.760561 -17.642522 0
M  V30 67 H 8.059383 3.667005 -17.991585 0
M  V30 68 H 9.476483 3.070384 -17.143522 0
M  V30 69 H 3.935079 0.887480 -19.345314 0
M  V30 70 H 5.449538 1.610544 -18.907219 0
M  V30 71 H 16.027080 3.690527 -18.602833 0
M  V30 72 H 12.667661 5.514218 -20.249945 0
M  V30 73 H 9.830007 -2.933611 -22.162980 0
M  V30 74 H 8.788834 -2.643772 -20.797245 0
M  V30 75 H 8.393330 -1.989804 -22.427836 0
M  V30 76 H 12.248935 8.201602 -20.463208 0
M  V30 77 H 13.829363 7.502525 -20.690402 0
M  V30 78 H 9.562951 6.357603 -21.181424 0
M  V30 79 H 10.933067 5.371933 -21.506314 0
M  V30 80 H 14.976214 5.380936 -14.894234 0
M  V30 END ATOM
M  V30 BEGIN BOND
M  V30 1 2 7 3
M  V30 2 1 8 2
M  V30 3 2 8 4
M  V30 4 1 11 5
M  V30 5 1 15 12
M  V30 6 1 16 8
M  V30 7 1 16 12
M  V30 8 1 17 3
M  V30 9 1 19 5
M  V30 10 2 20 6
M  V30 11 1 20 7
M  V30 12 1 22 1
M  V30 13 1 24 7
M  V30 14 1 24 9
M  V30 15 1 24 22
M  V30 16 1 25 6
M  V30 17 1 26 11
M  V30 18 1 27 12
M  V30 19 1 28 10
M  V30 20 1 28 13
M  V30 21 1 28 19
M  V30 22 1 28 21 CFG=1
M  V30 23 1 29 3
M  V30 24 2 29 25
M  V30 25 1 29 27
M  V30 26 1 30 17
M  V30 27 2 30 27
M  V30 28 1 32 2
M  V30 29 1 32 15
M  V30 30 1 33 10
M  V30 31 1 33 11
M  V30 32 1 34 1
M  V30 33 1 34 13
M  V30 34 1 34 14
M  V30 35 1 35 17
M  V30 36 1 35 22
M  V30 37 1 35 23
M  V30 38 1 35 31 CFG=1
M  V30 39 1 36 25
M  V30 40 1 37 10
M  V30 41 1 37 33
M  V30 42 1 38 13
M  V30 43 1 38 18
M  V30 44 1 39 14
M  V30 45 1 39 23
M  V30 46 1 40 1
M  V30 47 1 41 1
M  V30 48 1 42 2
M  V30 49 1 43 16
M  V30 50 1 44 2
M  V30 51 1 45 5
M  V30 52 1 46 6
M  V30 53 1 47 9
M  V30 54 1 48 9
M  V30 55 1 49 9
M  V30 56 1 10 50 CFG=3
M  V30 57 1 11 51 CFG=3
M  V30 58 1 12 52 CFG=3
M  V30 59 1 13 53 CFG=1
M  V30 60 1 54 15
M  V30 61 1 55 15
M  V30 62 1 56 16
M  V30 63 1 57 18
M  V30 64 1 58 19
M  V30 65 1 59 19
M  V30 66 1 60 20
M  V30 67 1 61 21
M  V30 68 1 22 62 CFG=1
M  V30 69 1 63 23
M  V30 70 1 64 23
M  V30 71 1 24 65 CFG=3
M  V30 72 1 66 31
M  V30 73 1 67 31
M  V30 74 1 68 31
M  V30 75 1 69 32
M  V30 76 1 70 32
M  V30 77 1 33 71 CFG=3
M  V30 78 1 34 72 CFG=3
M  V30 79 1 73 36
M  V30 80 1 74 36
M  V30 81 1 75 36
M  V30 82 1 76 38
M  V30 83 1 77 38
M  V30 84 1 78 39
M  V30 85 1 79 39
M  V30 86 1 80 5
M  V30 END BOND
M  V30 END CTAB
M  END
>  <i_epik_Tot_Q>  (1) 
0

>  <i_epik_Tot_abs_Q>  (1) 
2

>  <i_i_glide_confnum>  (1) 
100

>  <i_i_glide_lignum>  (1) 
139

>  <i_i_glide_posenum>  (1) 
88

>  <i_i_glide_rotatable_bonds>  (1) 
6

>  <i_lp_mmshare_version>  (1) 
72125

>  <i_m_source_file_index>  (1) 
81

>  <i_f3d_flags>  (1) 
0

>  <num_sample>  (1) 
100

>  <b_lp_Chiralities_Consistent>  (1) 
1

>  <r_epik_Charging_Adjusted_Penalty>  (1) 
0.19389291401224384

>  <r_epik_Ionization_Penalty>  (1) 
0.092004943806736766

>  <r_epik_Ionization_Penalty_Charging>  (1) 
0.091964506543683239

>  <r_epik_Ionization_Penalty_Neutral>  (1) 
4.0437263053531681e-05

>  <r_epik_State_Penalty>  (1) 
0.10192840746856062

>  <r_glide_ring_energy>  (1) 
1.9915023196562252

>  <r_i_docking_score>  (1) 
-3.9097730369095163

>  <r_i_glide_ecoul>  (1) 
-9.6768370313804724

>  <r_i_glide_eff_state_penalty>  (1) 
0.10192840746856062

>  <r_i_glide_einternal>  (1) 
6.6445739184977199

>  <r_i_glide_emodel>  (1) 
-32.519385293084994

>  <r_i_glide_emodel_strain>  (1) 
1.1734344046964509

>  <r_i_glide_energy>  (1) 
-30.399360918417273

>  <r_i_glide_erotb>  (1) 
0.19871393705319862

>  <r_i_glide_esite>  (1) 
0

>  <r_i_glide_evdw>  (1) 
-20.7225238870368

>  <r_i_glide_gscore>  (1) 
-4.011701444378077

>  <r_i_glide_gscore_strain>  (1) 
0

>  <r_i_glide_hbond>  (1) 
-0.44500617243528406

>  <r_i_glide_ligand_efficiency>  (1) 
-0.1002505906899876

>  <r_i_glide_ligand_efficiency_ln>  (1) 
-0.83836632462107374

>  <r_i_glide_ligand_efficiency_sa>  (1) 
-0.33997095031681546

>  <r_i_glide_lipo>  (1) 
-0.67974580314890143

>  <r_i_glide_metal>  (1) 
-0

>  <r_i_glide_rewards>  (1) 
-0.59801165678817969

>  <r_lp_Energy>  (1) 
36.052596000000001

>  <r_lp_tautomer_probability>  (1) 
0.99999997999999979

>  <s_epik_Chemistry_Notes>  (1) 
This compound contains an acetal/aminal-like group ( X-CH(R)-Y where X, Y are N, S, or O) that may be acid/base labile, releasing an aldehyde.

>  <s_epik_cmdline>  (1) 
J2VwaWtfcHl0aG9uJywgJy1waHQnLCAnMS4wJywgJy1waCcsICc3LjQnLCAnLXRuJywgJzgnLCAnLW1hJywgJzUwMCcsICctaW1hZScsICc8aW5maWxlLm1hZT4nLCAnLW9tYWUnLCAnPG91dGZpbGUubWFlPic=

>  <s_epik_input>  (1) 
W0NASF0xMltDQEBIXShPMilbQ0BASF0oW09IXSlbTkhdW0NIMl1bQ0BdMShbT0hdKVtDQEBIXShbQ0gyXVtPSF0pW0NASF0oT1tDSDJdW0NIMl0zKVtDSDJdW0NAQEhdNFtDQEBIXShbQ0gzXSljKGM1bjZbQ0BdMzRbQ0gzXSlbY0hdW2NIXWMoW0NIM10pYzVjKG42KVtDQEhdKFtDSDJdW0NIMl1bQ0gyXTcpW0NIXT1DN1tPSF0=

>  <s_glide_docking_method>  (1) 
confgen

>  <s_i_glide_gridfile>  (1) 
gpcr_drd2_6luq_protein_autoprepared_prepared

>  <s_lp_Force_Field>  (1) 
S-OPLS

>  <s_lp_Variant>  (1) 
DiffSBDD_80-1

>  <s_m_source_file>  (1) 
generated_generic_title2_ligand_DiffSBDD_2026-06-23_prepared.sdf

>  <GenAI_Model>  (1) 
DiffSBDD

>  <Protein>  (1) 
generic_title2

$$$$
DiffSBDD_2
     RDKit          3D

  0  0  0  0  0  0  0  0  0  0999 V3000
M  V30 BEGIN CTAB
M  V30 COUNTS 70 74 0 0 1
M  V30 BEGIN ATOM
M  V30 1 C 7.968270 5.189556 -10.590214 0
M  V30 2 N 8.305831 3.444070 -16.371670 0
M  V30 3 C 9.776315 4.725483 -18.960354 0
M  V30 4 C 5.525254 0.891188 -19.158825 0
M  V30 5 C 10.336700 0.889243 -19.356018 0
M  V30 6 C 10.851155 7.412855 -9.337203 0 CFG=1
M  V30 7 C 7.914368 0.326453 -19.900218 0
M  V30 8 O 6.663268 6.515864 -15.184803 0
M  V30 9 C 9.775455 6.813999 -10.228305 0
M  V30 10 C 7.498949 3.179403 -14.032721 0 CFG=2
M  V30 11 C 7.439078 2.469520 -18.602576 0
M  V30 12 C 7.039012 5.342694 -15.172415 0
M  V30 13 C 11.145716 3.230642 -17.514570 0
M  V30 14 C 12.187329 7.874278 -9.868064 0
M  V30 15 O 11.113266 8.790239 -9.638518 0
M  V30 16 O 6.592293 2.336196 -13.343841 0
M  V30 17 O 6.837284 3.358909 -19.206492 0
M  V30 18 C 9.186294 5.165460 -8.363496 0
M  V30 19 C 9.891754 6.137203 -7.445327 0
M  V30 20 C 9.331883 -0.005310 -19.449253 0
M  V30 21 C 4.903830 -0.469231 -18.814333 0
M  V30 22 F 11.230452 7.957012 -6.997507 0
M  V30 23 C 8.536206 6.784388 -12.342390 0
M  V30 24 C 7.503855 4.677562 -16.486927 0
M  V30 25 C 8.975416 5.730241 -9.765080 0
M  V30 26 C 9.908247 3.275536 -18.439441 0
M  V30 27 C 7.030578 0.998350 -18.817694 0 CFG=1
M  V30 28 C 7.743291 5.719161 -11.875042 0
M  V30 29 C 9.547384 7.327648 -11.526588 0
M  V30 30 C 8.641002 2.751621 -17.652226 0 CFG=1
M  V30 31 C 6.627743 5.155875 -12.745087 0
M  V30 32 N 7.061963 4.590927 -14.036893 0
M  V30 33 C 10.641965 7.145682 -7.894121 0
M  V30 34 C 10.205789 2.373182 -19.680234 0
M  V30 35 C 7.633595 2.557445 -15.431104 0
M  V30 36 H 7.356350 4.377170 -10.227905 0
M  V30 37 H 10.588091 4.968423 -19.646765 0
M  V30 38 H 8.846001 4.898129 -19.499173 0
M  V30 39 H 9.845604 5.454946 -18.155346 0
M  V30 40 H 4.975417 1.654579 -18.610144 0
M  V30 41 H 5.363247 1.108586 -20.215612 0
M  V30 42 H 11.308179 0.557922 -19.018390 0
M  V30 43 H 7.462460 -0.613585 -20.216403 0
M  V30 44 H 7.943502 0.937850 -20.802562 0
M  V30 45 H 8.462992 3.145652 -13.522071 0
M  V30 46 H 12.041157 3.578167 -18.030950 0
M  V30 47 H 11.016294 3.864955 -16.636708 0
M  V30 48 H 11.350456 2.220698 -17.161503 0
M  V30 49 H 13.025534 7.996226 -9.184678 0
M  V30 50 H 12.425548 7.718657 -10.917370 0
M  V30 51 H 7.086015 1.664206 -12.896986 0
M  V30 52 H 8.211566 4.932442 -7.932900 0
M  V30 53 H 9.756477 4.238740 -8.416128 0
M  V30 54 H 9.771376 5.985295 -6.383090 0
M  V30 55 H 9.518668 -1.036540 -19.186013 0
M  V30 56 H 3.838195 -0.475475 -19.047772 0
M  V30 57 H 5.367299 -1.279143 -19.376951 0
M  V30 58 H 5.008870 -0.694007 -17.752383 0
M  V30 59 H 8.361855 7.194856 -13.323654 0
M  V30 60 H 6.579499 4.495369 -17.029280 0
M  V30 61 H 8.035744 5.435059 -17.053311 0
M  V30 62 H 7.186048 0.484621 -17.868555 0
M  V30 63 H 10.142340 8.149776 -11.892041 0
M  V30 64 H 8.974844 1.765148 -17.334540 0
M  V30 65 H 5.901882 5.956692 -12.896902 0
M  V30 66 H 6.068695 4.419074 -12.169360 0
M  V30 67 H 11.141091 2.679585 -20.149896 0
M  V30 68 H 9.455307 2.526481 -20.455005 0
M  V30 69 H 8.176323 1.616415 -15.327774 0
M  V30 70 H 6.646404 2.295142 -15.819053 0
M  V30 END ATOM
M  V30 BEGIN BOND
M  V30 1 1 9 6
M  V30 2 2 12 8
M  V30 3 1 14 6
M  V30 4 1 6 15 CFG=1
M  V30 5 1 15 14
M  V30 6 1 16 10
M  V30 7 2 17 11
M  V30 8 1 19 18
M  V30 9 2 20 5
M  V30 10 1 20 7
M  V30 11 1 21 4
M  V30 12 1 24 2
M  V30 13 1 24 12
M  V30 14 1 25 1
M  V30 15 2 25 9
M  V30 16 1 25 18
M  V30 17 1 26 3
M  V30 18 1 26 13
M  V30 19 1 27 4
M  V30 20 1 27 7
M  V30 21 1 27 11
M  V30 22 2 28 1
M  V30 23 1 28 23
M  V30 24 1 29 9
M  V30 25 2 29 23
M  V30 26 1 30 2
M  V30 27 1 30 11
M  V30 28 1 30 26
M  V30 29 1 31 28
M  V30 30 1 32 10
M  V30 31 1 32 12
M  V30 32 1 32 31
M  V30 33 1 33 6
M  V30 34 2 33 19
M  V30 35 1 33 22
M  V30 36 1 34 5
M  V30 37 1 34 26
M  V30 38 1 35 2
M  V30 39 1 35 10
M  V30 40 1 36 1
M  V30 41 1 37 3
M  V30 42 1 38 3
M  V30 43 1 39 3
M  V30 44 1 40 4
M  V30 45 1 41 4
M  V30 46 1 42 5
M  V30 47 1 43 7
M  V30 48 1 44 7
M  V30 49 1 10 45 CFG=1
M  V30 50 1 46 13
M  V30 51 1 47 13
M  V30 52 1 48 13
M  V30 53 1 49 14
M  V30 54 1 50 14
M  V30 55 1 51 16
M  V30 56 1 52 18
M  V30 57 1 53 18
M  V30 58 1 54 19
M  V30 59 1 55 20
M  V30 60 1 56 21
M  V30 61 1 57 21
M  V30 62 1 58 21
M  V30 63 1 59 23
M  V30 64 1 60 24
M  V30 65 1 61 24
M  V30 66 1 27 62 CFG=1
M  V30 67 1 63 29
M  V30 68 1 30 64 CFG=1
M  V30 69 1 65 31
M  V30 70 1 66 31
M  V30 71 1 67 34
M  V30 72 1 68 34
M  V30 73 1 69 35
M  V30 74 1 70 35
M  V30 END BOND
M  V30 END CTAB
M  END
>  <i_epik_Tot_Q>  (1) 
0

>  <i_epik_Tot_abs_Q>  (1) 
0

>  <i_i_glide_confnum>  (1) 
18

>  <i_i_glide_lignum>  (1) 
4

>  <i_i_glide_posenum>  (1) 
207

>  <i_i_glide_rotatable_bonds>  (1) 
5

>  <i_lp_mmshare_version>  (1) 
72125

>  <i_m_source_file_index>  (1) 
3

>  <i_f3d_flags>  (1) 
0

>  <num_sample>  (1) 
100

>  <b_lp_Chiralities_Consistent>  (1) 
1

>  <r_epik_Charging_Adjusted_Penalty>  (1) 
0.083814788405558657

>  <r_epik_Ionization_Penalty>  (1) 
0.083950354633568577

>  <r_epik_Ionization_Penalty_Charging>  (1) 
0

>  <r_epik_Ionization_Penalty_Neutral>  (1) 
0.083950354633568577

>  <r_epik_State_Penalty>  (1) 
0.083814788405558657

>  <r_glide_ring_energy>  (1) 
0.49974599929525609

>  <r_i_docking_score>  (1) 
-3.9003837210246157

>  <r_i_glide_ecoul>  (1) 
0.12534679805518301

>  <r_i_glide_eff_state_penalty>  (1) 
0.083814788405558657

>  <r_i_glide_einternal>  (1) 
5.4151663315894574

>  <r_i_glide_emodel>  (1) 
-44.536576577415829

>  <r_i_glide_emodel_strain>  (1) 
0.23595613416055983

>  <r_i_glide_energy>  (1) 
-39.326669448838707

>  <r_i_glide_erotb>  (1) 
0.26141387589162818

>  <r_i_glide_esite>  (1) 
0

>  <r_i_glide_evdw>  (1) 
-39.452016246893891

>  <r_i_glide_gscore>  (1) 
-3.9841985094301742

>  <r_i_glide_gscore_strain>  (1) 
0

>  <r_i_glide_hbond>  (1) 
0

>  <r_i_glide_ligand_efficiency>  (1) 
-0.1114395348864176

>  <r_i_glide_ligand_efficiency_ln>  (1) 
-0.85622079111762739

>  <r_i_glide_ligand_efficiency_sa>  (1) 
-0.36452610819004666

>  <r_i_glide_lipo>  (1) 
-1.0136708221898629

>  <r_i_glide_metal>  (1) 
-0

>  <r_i_glide_rewards>  (1) 
-1.2781427704955226

>  <r_lp_Energy>  (1) 
64.581304000000003

>  <r_lp_tautomer_probability>  (1) 
0.99999998000000001

>  <s_epik_Chemistry_Notes>  (1) 
This compound contains an acetal/aminal-like group ( X-CH(R)-Y where X, Y are N, S, or O) that may be acid/base labile, releasing an aldehyde.

>  <s_epik_cmdline>  (1) 
J2VwaWtfcHl0aG9uJywgJy1waHQnLCAnMS4wJywgJy1waCcsICc3LjQnLCAnLXRuJywgJzgnLCAnLW1hJywgJzUwMCcsICctaW1hZScsICc8aW5maWxlLm1hZT4nLCAnLW9tYWUnLCAnPG91dGZpbGUubWFlPic=

>  <s_epik_input>  (1) 
TzFbQ0gyXVtDQF0xMmMzYyhbQ0gyXVtDSF09QzJGKVtjSF1jKFtjSF1bY0hdMylbQ0gyXU4oW0NAQEhdKFtPSF0pW0NIMl00KUMoPU8pW0NIMl1ONFtDQEhdKEM1KFtDSDNdKVtDSDNdKUMoPU8pW0NAQEhdKFtDSDJdW0NIM10pW0NIMl0vW0NIXT1bQ0hdXFtDSDJdNQ==

>  <s_glide_docking_method>  (1) 
confgen

>  <s_i_glide_gridfile>  (1) 
gpcr_drd2_6luq_protein_autoprepared_prepared

>  <s_lp_Force_Field>  (1) 
S-OPLS

>  <s_lp_Variant>  (1) 
DiffSBDD_2-1

>  <s_m_source_file>  (1) 
generated_generic_title2_ligand_DiffSBDD_2026-06-23_prepared.sdf

>  <GenAI_Model>  (1) 
DiffSBDD

>  <Protein>  (1) 
generic_title2

$$$$
DiffSBDD_83
     RDKit          3D

  0  0  0  0  0  0  0  0  0  0999 V3000
M  V30 BEGIN CTAB
M  V30 COUNTS 44 46 0 0 1
M  V30 BEGIN ATOM
M  V30 1 C 6.847732 0.534875 -15.396420 0
M  V30 2 C 10.884968 8.066004 -6.450971 0
M  V30 3 C 9.502240 6.913609 -8.093350 0
M  V30 4 C 9.241585 5.896778 -10.716827 0
M  V30 5 F 12.869918 9.190155 -7.166731 0
M  V30 6 C 9.750057 7.297578 -6.764177 0
M  V30 7 C 11.531644 8.072487 -8.803076 0
M  V30 8 C 7.013825 2.043700 -13.645854 0 CFG=1
M  V30 9 C 11.775592 8.453019 -7.469672 0
M  V30 10 N 5.845361 0.200081 -14.722741 0
M  V30 11 N 7.422940 4.560260 -13.089890 0
M  V30 12 C 7.737811 1.637247 -14.946415 0 CFG=2
M  V30 13 C 10.397000 7.300432 -9.122313 0
M  V30 14 C 7.927486 2.722876 -16.022390 0
M  V30 15 C 6.286482 4.179018 -12.259214 0
M  V30 16 O 10.174862 6.935034 -10.434357 0
M  V30 17 C 9.526898 5.372665 -12.126561 0
M  V30 18 F 11.120358 8.434340 -5.168978 0
M  V30 19 C 5.826800 0.204998 -12.278494 0
M  V30 20 C 8.690942 4.140962 -12.499216 0
M  V30 21 C 6.539241 3.503906 -13.581480 0 CFG=2
M  V30 22 C 5.806428 1.058513 -13.556313 0 CFG=1
M  V30 23 H 7.121621 0.045631 -16.334843 0
M  V30 24 H 8.622846 6.330262 -8.322236 0
M  V30 25 H 8.219385 6.271581 -10.648035 0
M  V30 26 H 9.354603 5.069927 -10.013447 0
M  V30 27 H 9.064938 7.003044 -5.985000 0
M  V30 28 H 12.216974 8.371366 -9.582360 0
M  V30 29 H 7.675993 1.830127 -12.807244 0
M  V30 30 H 8.427377 2.316689 -16.902282 0
M  V30 31 H 6.975810 3.141471 -16.351419 0
M  V30 32 H 8.543472 3.542107 -15.650708 0
M  V30 33 H 5.453118 4.876936 -12.208628 0
M  V30 34 H 6.456389 3.604357 -11.350948 0
M  V30 35 H 10.575363 5.084948 -12.166591 0
M  V30 36 H 9.408961 6.167002 -12.864740 0
M  V30 37 H 5.775429 0.827895 -11.386536 0
M  V30 38 H 4.974101 -0.470068 -12.248848 0
M  V30 39 H 6.729832 -0.402159 -12.213980 0
M  V30 40 H 8.584765 3.478883 -11.639104 0
M  V30 41 H 9.243753 3.588265 -13.255753 0
M  V30 42 H 5.864335 3.789300 -14.384842 0
M  V30 43 H 4.866833 1.610908 -13.584933 0
M  V30 44 H 8.698881 1.190227 -14.696846 0
M  V30 END ATOM
M  V30 BEGIN BOND
M  V30 1 1 6 2
M  V30 2 2 6 3
M  V30 3 2 9 2
M  V30 4 1 9 5
M  V30 5 1 9 7
M  V30 6 2 10 1
M  V30 7 1 12 1
M  V30 8 1 12 8
M  V30 9 1 13 3
M  V30 10 2 13 7
M  V30 11 1 14 12
M  V30 12 1 15 11
M  V30 13 1 16 4
M  V30 14 1 16 13
M  V30 15 1 17 4
M  V30 16 1 18 2
M  V30 17 1 20 11
M  V30 18 1 20 17
M  V30 19 1 21 8
M  V30 20 1 21 11
M  V30 21 1 21 15
M  V30 22 1 22 8
M  V30 23 1 22 10
M  V30 24 1 22 19
M  V30 25 1 23 1
M  V30 26 1 24 3
M  V30 27 1 25 4
M  V30 28 1 26 4
M  V30 29 1 27 6
M  V30 30 1 28 7
M  V30 31 1 8 29 CFG=1
M  V30 32 1 30 14
M  V30 33 1 31 14
M  V30 34 1 32 14
M  V30 35 1 33 15
M  V30 36 1 34 15
M  V30 37 1 35 17
M  V30 38 1 36 17
M  V30 39 1 37 19
M  V30 40 1 38 19
M  V30 41 1 39 19
M  V30 42 1 40 20
M  V30 43 1 41 20
M  V30 44 1 21 42 CFG=3
M  V30 45 1 22 43 CFG=3
M  V30 46 1 12 44 CFG=1
M  V30 END BOND
M  V30 END CTAB
M  END
>  <i_epik_Tot_Q>  (1) 
0

>  <i_epik_Tot_abs_Q>  (1) 
0

>  <i_i_glide_confnum>  (1) 
58

>  <i_i_glide_lignum>  (1) 
151

>  <i_i_glide_posenum>  (1) 
226

>  <i_i_glide_rotatable_bonds>  (1) 
6

>  <i_lp_mmshare_version>  (1) 
72125

>  <i_m_source_file_index>  (1) 
84

>  <i_f3d_flags>  (1) 
0

>  <num_sample>  (1) 
100

>  <b_lp_Chiralities_Consistent>  (1) 
1

>  <r_epik_Charging_Adjusted_Penalty>  (1) 
1.2980487057549497

>  <r_epik_Ionization_Penalty>  (1) 
3.173295616345865

>  <r_epik_Ionization_Penalty_Charging>  (1) 
0

>  <r_epik_Ionization_Penalty_Neutral>  (1) 
3.173295616345865

>  <r_epik_State_Penalty>  (1) 
1.2980487057549497

>  <r_glide_ring_energy>  (1) 
0

>  <r_i_docking_score>  (1) 
-3.8922990442913856

>  <r_i_glide_ecoul>  (1) 
-1.259069253457507

>  <r_i_glide_eff_state_penalty>  (1) 
1.2980487057549497

>  <r_i_glide_einternal>  (1) 
7.4268556932454892

>  <r_i_glide_emodel>  (1) 
-38.409366867202735

>  <r_i_glide_emodel_strain>  (1) 
0.60866969889656986

>  <r_i_glide_energy>  (1) 
-33.303072323100977

>  <r_i_glide_erotb>  (1) 
0.9727450720595302

>  <r_i_glide_esite>  (1) 
0

>  <r_i_glide_evdw>  (1) 
-32.044003069643473

>  <r_i_glide_gscore>  (1) 
-5.1903477500463353

>  <r_i_glide_gscore_strain>  (1) 
0

>  <r_i_glide_hbond>  (1) 
0

>  <r_i_glide_ligand_efficiency>  (1) 
-0.17692268383142662

>  <r_i_glide_ligand_efficiency_ln>  (1) 
-0.95141986148205748

>  <r_i_glide_ligand_efficiency_sa>  (1) 
-0.4957443185807654

>  <r_i_glide_lipo>  (1) 
-1.9233572209220107

>  <r_i_glide_metal>  (1) 
-0

>  <r_i_glide_rewards>  (1) 
-2.4486750596830551

>  <r_lp_Energy>  (1) 
21.746376999999999

>  <r_lp_tautomer_probability>  (1) 
0.99998600000000004

>  <s_epik_Chemistry_Notes>  (1) 
This compound has an imine and may undergo hydrolysis.

>  <s_epik_cmdline>  (1) 
J2VwaWtfcHl0aG9uJywgJy1waHQnLCAnMS4wJywgJy1waCcsICc3LjQnLCAnLXRuJywgJzgnLCAnLW1hJywgJzUwMCcsICctaW1hZScsICc8aW5maWxlLm1hZT4nLCAnLW9tYWUnLCAnPG91dGZpbGUubWFlPic=

>  <s_epik_input>  (1) 
W0NIM11bQ0BASF0xTj1bQ0hdW0NAQEhdKFtDSDNdKVtDQEhdMVtDQEhdMltDSDJdTjJbQ0gyXVtDSDJdW0NIMl1PYyhbY0hdYzNGKVtjSF1bY0hdYzNG

>  <s_glide_docking_method>  (1) 
confgen

>  <s_i_glide_gridfile>  (1) 
gpcr_drd2_6luq_protein_autoprepared_prepared

>  <s_lp_Force_Field>  (1) 
S-OPLS

>  <s_lp_Variant>  (1) 
DiffSBDD_83-5

>  <s_m_source_file>  (1) 
generated_generic_title2_ligand_DiffSBDD_2026-06-23_prepared.sdf

>  <GenAI_Model>  (1) 
DiffSBDD

>  <Protein>  (1) 
generic_title2

$$$$
DiffSBDD_83
     RDKit          3D

  0  0  0  0  0  0  0  0  0  0999 V3000
M  V30 BEGIN CTAB
M  V30 COUNTS 44 46 0 0 1
M  V30 BEGIN ATOM
M  V30 1 C 6.093726 5.816524 -14.150678 0
M  V30 2 C 11.775411 8.072753 -4.108105 0
M  V30 3 C 12.104195 9.590232 -5.985023 0
M  V30 4 C 10.300769 8.390152 -8.963824 0
M  V30 5 F 10.664155 5.990229 -4.464806 0
M  V30 6 C 12.256814 9.288796 -4.618516 0
M  V30 7 C 10.975396 7.450798 -6.328321 0
M  V30 8 C 8.107177 5.846852 -13.032131 0 CFG=1
M  V30 9 C 11.132503 7.154828 -4.961129 0
M  V30 10 N 6.588466 4.739059 -14.563527 0
M  V30 11 N 9.038888 5.818323 -10.589059 0
M  V30 12 C 6.895188 6.756011 -13.323653 0 CFG=2
M  V30 13 C 11.465087 8.674694 -6.846380 0
M  V30 14 C 6.123438 7.343975 -12.129923 0
M  V30 15 C 9.375411 4.517429 -11.151668 0
M  V30 16 O 11.336500 8.984101 -8.182784 0
M  V30 17 C 10.886056 7.253884 -9.815576 0
M  V30 18 F 11.926903 7.784173 -2.793507 0
M  V30 19 C 8.928441 4.840578 -15.263135 0
M  V30 20 C 9.996788 6.841349 -11.002113 0
M  V30 21 C 8.151007 5.260394 -11.612365 0 CFG=2
M  V30 22 C 7.956149 4.699500 -14.079580 0 CFG=1
M  V30 23 H 5.067128 6.119745 -14.369612 0
M  V30 24 H 12.478883 10.524244 -6.375243 0
M  V30 25 H 9.924048 9.180052 -9.611059 0
M  V30 26 H 9.436048 8.067233 -8.382143 0
M  V30 27 H 12.748449 9.990226 -3.962244 0
M  V30 28 H 10.485795 6.739186 -6.975046 0
M  V30 29 H 9.022173 6.390275 -13.246828 0
M  V30 30 H 5.245680 7.901971 -12.457294 0
M  V30 31 H 5.775253 6.583247 -11.430984 0
M  V30 32 H 6.758715 8.040871 -11.585027 0
M  V30 33 H 9.229906 3.647821 -10.518183 0
M  V30 34 H 10.191244 4.424461 -11.865535 0
M  V30 35 H 11.121587 6.396311 -9.185022 0
M  V30 36 H 11.836377 7.601067 -10.222084 0
M  V30 37 H 9.964086 4.803307 -14.923329 0
M  V30 38 H 8.789078 4.033219 -15.982631 0
M  V30 39 H 8.785002 5.783973 -15.790362 0
M  V30 40 H 10.640625 6.490666 -11.809692 0
M  V30 41 H 9.461068 7.711595 -11.384127 0
M  V30 42 H 7.209449 4.834314 -11.271852 0
M  V30 43 H 8.138953 3.730875 -13.610868 0
M  V30 44 H 7.211029 7.572784 -13.974031 0
M  V30 END ATOM
M  V30 BEGIN BOND
M  V30 1 1 6 2
M  V30 2 2 6 3
M  V30 3 2 9 2
M  V30 4 1 9 5
M  V30 5 1 9 7
M  V30 6 2 10 1
M  V30 7 1 12 1
M  V30 8 1 12 8
M  V30 9 1 13 3
M  V30 10 2 13 7
M  V30 11 1 14 12
M  V30 12 1 15 11
M  V30 13 1 16 4
M  V30 14 1 16 13
M  V30 15 1 17 4
M  V30 16 1 18 2
M  V30 17 1 20 11
M  V30 18 1 20 17
M  V30 19 1 21 8
M  V30 20 1 21 11
M  V30 21 1 21 15
M  V30 22 1 22 8
M  V30 23 1 22 10
M  V30 24 1 22 19
M  V30 25 1 23 1
M  V30 26 1 24 3
M  V30 27 1 25 4
M  V30 28 1 26 4
M  V30 29 1 27 6
M  V30 30 1 28 7
M  V30 31 1 8 29 CFG=3
M  V30 32 1 30 14
M  V30 33 1 31 14
M  V30 34 1 32 14
M  V30 35 1 33 15
M  V30 36 1 34 15
M  V30 37 1 35 17
M  V30 38 1 36 17
M  V30 39 1 37 19
M  V30 40 1 38 19
M  V30 41 1 39 19
M  V30 42 1 40 20
M  V30 43 1 41 20
M  V30 44 1 21 42 CFG=1
M  V30 45 1 22 43 CFG=1
M  V30 46 1 12 44 CFG=3
M  V30 END BOND
M  V30 END CTAB
M  END
>  <i_epik_Tot_Q>  (1) 
0

>  <i_epik_Tot_abs_Q>  (1) 
0

>  <i_i_glide_confnum>  (1) 
35

>  <i_i_glide_lignum>  (1) 
151

>  <i_i_glide_posenum>  (1) 
191

>  <i_i_glide_rotatable_bonds>  (1) 
6

>  <i_lp_mmshare_version>  (1) 
72125

>  <i_m_source_file_index>  (1) 
84

>  <i_f3d_flags>  (1) 
0

>  <num_sample>  (1) 
100

>  <b_lp_Chiralities_Consistent>  (1) 
1

>  <r_epik_Charging_Adjusted_Penalty>  (1) 
1.2980487057549497

>  <r_epik_Ionization_Penalty>  (1) 
3.173295616345865

>  <r_epik_Ionization_Penalty_Charging>  (1) 
0

>  <r_epik_Ionization_Penalty_Neutral>  (1) 
3.173295616345865

>  <r_epik_State_Penalty>  (1) 
1.2980487057549497

>  <r_glide_ring_energy>  (1) 
0

>  <r_i_docking_score>  (1) 
-3.8883550620389484

>  <r_i_glide_ecoul>  (1) 
0.18851321486338046

>  <r_i_glide_eff_state_penalty>  (1) 
1.2980487057549497

>  <r_i_glide_einternal>  (1) 
8.2161356640348515

>  <r_i_glide_emodel>  (1) 
-34.286075200653791

>  <r_i_glide_emodel_strain>  (1) 
0.54527410373686536

>  <r_i_glide_energy>  (1) 
-29.518189385837353

>  <r_i_glide_erotb>  (1) 
0.9727450720595302

>  <r_i_glide_esite>  (1) 
0

>  <r_i_glide_evdw>  (1) 
-29.706702600700734

>  <r_i_glide_gscore>  (1) 
-5.1864037677938981

>  <r_i_glide_gscore_strain>  (1) 
0

>  <r_i_glide_hbond>  (1) 
0

>  <r_i_glide_ligand_efficiency>  (1) 
-0.17674341191086129

>  <r_i_glide_ligand_efficiency_ln>  (1) 
-0.95045580835931376

>  <r_i_glide_ligand_efficiency_sa>  (1) 
-0.49524199160845922

>  <r_i_glide_lipo>  (1) 
-2.0581254881376965

>  <r_i_glide_metal>  (1) 
-0

>  <r_i_glide_rewards>  (1) 
-2.6439652039102022

>  <r_lp_Energy>  (1) 
21.746376999999999

>  <r_lp_tautomer_probability>  (1) 
0.99998600000000004

>  <s_epik_Chemistry_Notes>  (1) 
This compound has an imine and may undergo hydrolysis.

>  <s_epik_cmdline>  (1) 
J2VwaWtfcHl0aG9uJywgJy1waHQnLCAnMS4wJywgJy1waCcsICc3LjQnLCAnLXRuJywgJzgnLCAnLW1hJywgJzUwMCcsICctaW1hZScsICc8aW5maWxlLm1hZT4nLCAnLW9tYWUnLCAnPG91dGZpbGUubWFlPic=

>  <s_epik_input>  (1) 
W0NIM11bQ0BASF0xTj1bQ0hdW0NAQEhdKFtDSDNdKVtDQEhdMVtDQEhdMltDSDJdTjJbQ0gyXVtDSDJdW0NIMl1PYyhbY0hdYzNGKVtjSF1bY0hdYzNG

>  <s_glide_docking_method>  (1) 
confgen

>  <s_i_glide_gridfile>  (1) 
gpcr_drd2_6luq_protein_autoprepared_prepared

>  <s_lp_Force_Field>  (1) 
S-OPLS

>  <s_lp_Variant>  (1) 
DiffSBDD_83-5

>  <s_m_source_file>  (1) 
generated_generic_title2_ligand_DiffSBDD_2026-06-23_prepared.sdf

>  <GenAI_Model>  (1) 
DiffSBDD

>  <Protein>  (1) 
generic_title2

$$$$
DiffSBDD_35
     RDKit          3D

  0  0  0  0  0  0  0  0  0  0999 V3000
M  V30 BEGIN CTAB
M  V30 COUNTS 57 59 0 0 1
M  V30 BEGIN ATOM
M  V30 1 O 13.184297 0.349567 -18.793246 0
M  V30 2 N 9.375033 5.993423 -9.166725 0
M  V30 3 C 11.262128 7.990234 -9.838099 0
M  V30 4 C 9.094336 5.898962 -12.809683 0
M  V30 5 C 15.375227 3.157932 -16.431130 0
M  V30 6 C 13.082726 0.540414 -17.420931 0
M  V30 7 C 7.953392 4.625088 -11.041725 0
M  V30 8 C 14.760064 5.589264 -15.985497 0
M  V30 9 C 10.147669 6.579321 -8.223452 0
M  V30 10 Cl 12.576308 7.014026 -15.747096 0
M  V30 11 O 14.167975 1.248100 -16.902880 0
M  V30 12 C 9.554321 5.063161 -15.642000 0
M  V30 13 C 12.784288 4.703197 -17.233053 0
M  V30 14 C 10.460621 7.402914 -10.830161 0
M  V30 15 S 11.236281 5.288116 -18.017227 0
M  V30 16 C 15.736584 4.587757 -16.450933 0
M  V30 17 C 8.046697 4.995140 -13.488547 0 CFG=2
M  V30 18 C 7.737110 3.932149 -12.397938 0 CFG=2
M  V30 19 C 14.254620 2.623596 -16.923460 0
M  V30 20 C 7.072949 4.428329 -15.748791 0
M  V30 21 C 8.355862 4.398717 -14.899394 0 CFG=1
M  V30 22 N 8.675631 5.815700 -11.429689 0
M  V30 23 C 13.475026 5.671743 -16.347113 0
M  V30 24 O 11.093149 4.574852 -19.363967 0
M  V30 25 C 9.520601 6.409332 -10.453942 0
M  V30 26 O 9.727322 3.229820 -17.185048 0
M  V30 27 C 10.077520 4.378229 -16.912738 0
M  V30 28 C 14.260620 -0.501432 -19.160641 0
M  V30 29 F 6.504180 3.438230 -12.514381 0
M  V30 30 C 13.123664 3.398018 -17.485188 0
M  V30 31 C 11.102178 7.573637 -8.509997 0
M  V30 32 H 11.984592 8.752176 -10.093010 0
M  V30 33 H 10.111997 5.518640 -12.904701 0
M  V30 34 H 9.023562 6.918030 -13.185069 0
M  V30 35 H 16.131005 2.493570 -16.037736 0
M  V30 36 H 13.067303 -0.429480 -16.925860 0
M  V30 37 H 12.126189 1.005803 -17.184749 0
M  V30 38 H 8.527424 3.990183 -10.372148 0
M  V30 39 H 7.013880 4.903469 -10.562179 0
M  V30 40 H 15.158023 6.353342 -15.335467 0
M  V30 41 H 10.003542 6.239359 -7.208534 0
M  V30 42 H 10.418392 5.146609 -14.986784 0
M  V30 43 H 9.276037 6.067420 -15.932454 0
M  V30 44 H 10.556621 7.712897 -11.857384 0
M  V30 45 H 16.060706 4.854809 -17.457585 0
M  V30 46 H 16.616197 4.695740 -15.815502 0
M  V30 47 H 7.157983 5.624109 -13.575306 0
M  V30 48 H 8.430665 3.093013 -12.474694 0
M  V30 49 H 6.802282 5.448548 -16.022275 0
M  V30 50 H 7.174873 3.851443 -16.668406 0
M  V30 51 H 6.240149 4.005434 -15.184684 0
M  V30 52 H 8.575207 3.342473 -14.758159 0
M  V30 53 H 14.257826 -0.643717 -20.241069 0
M  V30 54 H 15.223130 -0.071987 -18.879313 0
M  V30 55 H 14.170877 -1.485731 -18.697834 0
M  V30 56 H 12.447931 2.858705 -18.129628 0
M  V30 57 H 11.698790 8.006569 -7.721532 0
M  V30 END ATOM
M  V30 BEGIN BOND
M  V30 1 1 6 1
M  V30 2 2 9 2
M  V30 3 1 11 6
M  V30 4 1 14 3
M  V30 5 1 15 13
M  V30 6 1 16 5
M  V30 7 1 16 8
M  V30 8 1 17 4
M  V30 9 1 18 7
M  V30 10 1 18 17
M  V30 11 2 19 5
M  V30 12 1 19 11
M  V30 13 1 21 12
M  V30 14 1 21 17
M  V30 15 1 21 20
M  V30 16 1 22 4
M  V30 17 1 22 7
M  V30 18 2 23 8
M  V30 19 1 23 10
M  V30 20 1 23 13
M  V30 21 2 24 15
M  V30 22 1 25 2
M  V30 23 2 25 14
M  V30 24 1 25 22
M  V30 25 1 27 12
M  V30 26 1 15 27 CFG=1
M  V30 27 2 27 26
M  V30 28 1 28 1
M  V30 29 1 29 18
M  V30 30 2 30 13
M  V30 31 1 30 19
M  V30 32 2 31 3
M  V30 33 1 31 9
M  V30 34 1 32 3
M  V30 35 1 33 4
M  V30 36 1 34 4
M  V30 37 1 35 5
M  V30 38 1 36 6
M  V30 39 1 37 6
M  V30 40 1 38 7
M  V30 41 1 39 7
M  V30 42 1 40 8
M  V30 43 1 41 9
M  V30 44 1 42 12
M  V30 45 1 43 12
M  V30 46 1 44 14
M  V30 47 1 45 16
M  V30 48 1 46 16
M  V30 49 1 17 47 CFG=3
M  V30 50 1 18 48 CFG=3
M  V30 51 1 49 20
M  V30 52 1 50 20
M  V30 53 1 51 20
M  V30 54 1 21 52 CFG=1
M  V30 55 1 53 28
M  V30 56 1 54 28
M  V30 57 1 55 28
M  V30 58 1 56 30
M  V30 59 1 57 31
M  V30 END BOND
M  V30 END CTAB
M  END
>  <i_epik_Tot_Q>  (1) 
0

>  <i_epik_Tot_abs_Q>  (1) 
0

>  <i_i_glide_confnum>  (1) 
979

>  <i_i_glide_lignum>  (1) 
59

>  <i_i_glide_posenum>  (1) 
68

>  <i_i_glide_rotatable_bonds>  (1) 
9

>  <i_lp_mmshare_version>  (1) 
72125

>  <i_m_source_file_index>  (1) 
36

>  <i_f3d_flags>  (1) 
0

>  <num_sample>  (1) 
100

>  <b_lp_Chiralities_Consistent>  (1) 
1

>  <r_epik_Charging_Adjusted_Penalty>  (1) 
0.099723663867704454

>  <r_epik_Ionization_Penalty>  (1) 
0.0997236638898443

>  <r_epik_Ionization_Penalty_Charging>  (1) 
0

>  <r_epik_Ionization_Penalty_Neutral>  (1) 
0.0997236638898443

>  <r_epik_State_Penalty>  (1) 
0.099723663867704454

>  <r_glide_ring_energy>  (1) 
0

>  <r_i_docking_score>  (1) 
-3.8651027451681714

>  <r_i_glide_ecoul>  (1) 
-0.24210077811802644

>  <r_i_glide_eff_state_penalty>  (1) 
0.099723663867704454

>  <r_i_glide_einternal>  (1) 
6.6210380562516731

>  <r_i_glide_emodel>  (1) 
-40.130484422763338

>  <r_i_glide_emodel_strain>  (1) 
1.6363497816267483

>  <r_i_glide_energy>  (1) 
-36.58991684935112

>  <r_i_glide_erotb>  (1) 
0.73452498433328617

>  <r_i_glide_esite>  (1) 
-0.025407757367933121

>  <r_i_glide_evdw>  (1) 
-36.34781607123309

>  <r_i_glide_gscore>  (1) 
-3.9648264090358758

>  <r_i_glide_gscore_strain>  (1) 
0

>  <r_i_glide_hbond>  (1) 
0

>  <r_i_glide_ligand_efficiency>  (1) 
-0.1246807337151023

>  <r_i_glide_ligand_efficiency_ln>  (1) 
-0.87169912020911411

>  <r_i_glide_ligand_efficiency_sa>  (1) 
-0.39166964461858572

>  <r_i_glide_lipo>  (1) 
-1.4861344489046437

>  <r_i_glide_metal>  (1) 
-0

>  <r_i_glide_rewards>  (1) 
-1.3341032668172266

>  <r_lp_Energy>  (1) 
24.480764999999998

>  <r_lp_tautomer_probability>  (1) 
1

>  <s_epik_Chemistry_Notes>  (1) 
This compound contains an acetal/aminal-like group ( X-CH(R)-Y where X, Y are N, S, or O) that may be acid/base labile, releasing an aldehyde.

>  <s_epik_cmdline>  (1) 
J2VwaWtfcHl0aG9uJywgJy1waHQnLCAnMS4wJywgJy1waCcsICc3LjQnLCAnLXRuJywgJzgnLCAnLW1hJywgJzUwMCcsICctaW1hZScsICc8aW5maWxlLm1hZT4nLCAnLW9tYWUnLCAnPG91dGZpbGUubWFlPic=

>  <s_epik_input>  (1) 
Q2xDMT1bQ0hdW0NIMl1bQ0hdPUMoT1tDSDJdT1tDSDNdKVtDSF09QzFbU0BAXSg9TylDKD1PKVtDSDJdW0NASF0oW0NIM10pW0NAQEhdMltDSDJdTihbQ0gyXVtDQEhdMkYpYzNuW2NIXVtjSF1bY0hdW2NIXTM=

>  <s_glide_docking_method>  (1) 
confgen

>  <s_i_glide_gridfile>  (1) 
gpcr_drd2_6luq_protein_autoprepared_prepared

>  <s_lp_Force_Field>  (1) 
S-OPLS

>  <s_lp_Variant>  (1) 
DiffSBDD_35-1

>  <s_m_source_file>  (1) 
generated_generic_title2_ligand_DiffSBDD_2026-06-23_prepared.sdf

>  <GenAI_Model>  (1) 
DiffSBDD

>  <Protein>  (1) 
generic_title2

$$$$
DiffSBDD_35
     RDKit          3D

  0  0  0  0  0  0  0  0  0  0999 V3000
M  V30 BEGIN CTAB
M  V30 COUNTS 57 59 0 0 1
M  V30 BEGIN ATOM
M  V30 1 O 13.700717 5.949159 -18.023144 0
M  V30 2 N 10.260723 6.362424 -7.171036 0
M  V30 3 C 11.352664 8.929192 -6.733047 0
M  V30 4 C 9.320087 5.549514 -9.566193 0
M  V30 5 C 9.654355 5.984083 -19.061289 0
M  V30 6 C 12.419662 6.028378 -18.555477 0
M  V30 7 C 9.803276 7.771271 -10.485824 0
M  V30 8 C 7.177560 6.260908 -18.478271 0
M  V30 9 C 10.575675 6.790305 -5.928079 0
M  V30 10 Cl 5.661643 6.022380 -16.339111 0
M  V30 11 O 11.511190 5.279817 -17.805338 0
M  V30 12 C 7.156029 4.835941 -12.869302 0
M  V30 13 C 8.009010 4.642816 -16.768021 0
M  V30 14 C 11.020139 8.506450 -8.030077 0
M  V30 15 S 7.375530 3.533274 -15.459654 0
M  V30 16 C 8.236233 6.018379 -19.487136 0
M  V30 17 C 8.934762 5.532036 -11.059343 0 CFG=2
M  V30 18 C 8.785792 7.038455 -11.382346 0 CFG=2
M  V30 19 C 10.146266 5.282895 -18.020118 0
M  V30 20 C 6.619799 4.570987 -10.417032 0
M  V30 21 C 7.753469 4.594203 -11.457702 0 CFG=1
M  V30 22 N 10.121293 6.754672 -9.504983 0
M  V30 23 C 7.050051 5.637366 -17.298478 0
M  V30 24 O 8.175324 2.229544 -15.498524 0
M  V30 25 C 10.466719 7.214726 -8.207942 0
M  V30 26 O 9.252812 4.790273 -14.026741 0
M  V30 27 C 8.068679 4.463622 -14.040495 0
M  V30 28 C 14.248416 4.641384 -18.066253 0
M  V30 29 F 8.975237 7.317842 -12.661917 0
M  V30 30 C 9.335402 4.495584 -17.082433 0
M  V30 31 C 11.121882 8.057589 -5.661102 0
M  V30 32 H 11.775501 9.908324 -6.564931 0
M  V30 33 H 8.450900 5.682315 -8.921140 0
M  V30 34 H 9.863199 4.654810 -9.261355 0
M  V30 35 H 10.331560 6.529466 -19.697783 0
M  V30 36 H 12.433722 5.689014 -19.593110 0
M  V30 37 H 12.142397 7.083029 -18.522701 0
M  V30 38 H 9.353862 8.667458 -10.056431 0
M  V30 39 H 10.704820 8.033314 -11.038324 0
M  V30 40 H 6.416464 6.970734 -18.768620 0
M  V30 41 H 10.389603 6.096363 -5.121370 0
M  V30 42 H 6.832252 5.870203 -12.983145 0
M  V30 43 H 6.253473 4.235033 -12.983698 0
M  V30 44 H 11.188004 9.159313 -8.873018 0
M  V30 45 H 8.006180 5.105678 -20.038112 0
M  V30 46 H 8.156777 6.829893 -20.211392 0
M  V30 47 H 9.822842 5.189228 -11.592675 0
M  V30 48 H 7.775162 7.368665 -11.185002 0
M  V30 49 H 6.205954 5.566993 -10.257176 0
M  V30 50 H 5.802599 3.916053 -10.720537 0
M  V30 51 H 6.975208 4.189410 -9.460218 0
M  V30 52 H 8.173815 3.590229 -11.472569 0
M  V30 53 H 15.260463 4.657843 -17.662592 0
M  V30 54 H 13.661835 3.942239 -17.467800 0
M  V30 55 H 14.303903 4.269409 -19.090195 0
M  V30 56 H 9.869679 3.739185 -16.526056 0
M  V30 57 H 11.361960 8.351428 -4.650397 0
M  V30 END ATOM
M  V30 BEGIN BOND
M  V30 1 1 6 1
M  V30 2 2 9 2
M  V30 3 1 11 6
M  V30 4 1 14 3
M  V30 5 1 15 13
M  V30 6 1 16 5
M  V30 7 1 16 8
M  V30 8 1 17 4
M  V30 9 1 18 7
M  V30 10 1 18 17
M  V30 11 2 19 5
M  V30 12 1 19 11
M  V30 13 1 21 12
M  V30 14 1 21 17
M  V30 15 1 21 20
M  V30 16 1 22 4
M  V30 17 1 22 7
M  V30 18 2 23 8
M  V30 19 1 23 10
M  V30 20 1 23 13
M  V30 21 2 24 15
M  V30 22 1 25 2
M  V30 23 2 25 14
M  V30 24 1 25 22
M  V30 25 1 27 12
M  V30 26 1 15 27 CFG=1
M  V30 27 2 27 26
M  V30 28 1 28 1
M  V30 29 1 29 18
M  V30 30 2 30 13
M  V30 31 1 30 19
M  V30 32 2 31 3
M  V30 33 1 31 9
M  V30 34 1 32 3
M  V30 35 1 33 4
M  V30 36 1 34 4
M  V30 37 1 35 5
M  V30 38 1 36 6
M  V30 39 1 37 6
M  V30 40 1 38 7
M  V30 41 1 39 7
M  V30 42 1 40 8
M  V30 43 1 41 9
M  V30 44 1 42 12
M  V30 45 1 43 12
M  V30 46 1 44 14
M  V30 47 1 45 16
M  V30 48 1 46 16
M  V30 49 1 17 47 CFG=3
M  V30 50 1 18 48 CFG=1
M  V30 51 1 49 20
M  V30 52 1 50 20
M  V30 53 1 51 20
M  V30 54 1 21 52 CFG=3
M  V30 55 1 53 28
M  V30 56 1 54 28
M  V30 57 1 55 28
M  V30 58 1 56 30
M  V30 59 1 57 31
M  V30 END BOND
M  V30 END CTAB
M  END
>  <i_epik_Tot_Q>  (1) 
0

>  <i_epik_Tot_abs_Q>  (1) 
0

>  <i_i_glide_confnum>  (1) 
810

>  <i_i_glide_lignum>  (1) 
59

>  <i_i_glide_posenum>  (1) 
355

>  <i_i_glide_rotatable_bonds>  (1) 
9

>  <i_lp_mmshare_version>  (1) 
72125

>  <i_m_source_file_index>  (1) 
36

>  <i_f3d_flags>  (1) 
0

>  <num_sample>  (1) 
100

>  <b_lp_Chiralities_Consistent>  (1) 
1

>  <r_epik_Charging_Adjusted_Penalty>  (1) 
0.099723663867704454

>  <r_epik_Ionization_Penalty>  (1) 
0.0997236638898443

>  <r_epik_Ionization_Penalty_Charging>  (1) 
0

>  <r_epik_Ionization_Penalty_Neutral>  (1) 
0.0997236638898443

>  <r_epik_State_Penalty>  (1) 
0.099723663867704454

>  <r_glide_ring_energy>  (1) 
0

>  <r_i_docking_score>  (1) 
-3.8650610378564707

>  <r_i_glide_ecoul>  (1) 
-0.32107681293328771

>  <r_i_glide_eff_state_penalty>  (1) 
0.099723663867704454

>  <r_i_glide_einternal>  (1) 
10.519730913095128

>  <r_i_glide_emodel>  (1) 
-39.115546787778179

>  <r_i_glide_emodel_strain>  (1) 
0.43208803559016928

>  <r_i_glide_energy>  (1) 
-36.320153178883103

>  <r_i_glide_erotb>  (1) 
0.73452498433328617

>  <r_i_glide_esite>  (1) 
-0.079067750837764572

>  <r_i_glide_evdw>  (1) 
-35.999076365949819

>  <r_i_glide_gscore>  (1) 
-3.9647847017241751

>  <r_i_glide_gscore_strain>  (1) 
0

>  <r_i_glide_hbond>  (1) 
0

>  <r_i_glide_ligand_efficiency>  (1) 
-0.12467938831795067

>  <r_i_glide_ligand_efficiency_ln>  (1) 
-0.87168971393215

>  <r_i_glide_ligand_efficiency_sa>  (1) 
-0.39166541821400375

>  <r_i_glide_lipo>  (1) 
-1.8865136583936168

>  <r_i_glide_metal>  (1) 
-0

>  <r_i_glide_rewards>  (1) 
-0.88561293658859563

>  <r_lp_Energy>  (1) 
24.480764999999998

>  <r_lp_tautomer_probability>  (1) 
1

>  <s_epik_Chemistry_Notes>  (1) 
This compound contains an acetal/aminal-like group ( X-CH(R)-Y where X, Y are N, S, or O) that may be acid/base labile, releasing an aldehyde.

>  <s_epik_cmdline>  (1) 
J2VwaWtfcHl0aG9uJywgJy1waHQnLCAnMS4wJywgJy1waCcsICc3LjQnLCAnLXRuJywgJzgnLCAnLW1hJywgJzUwMCcsICctaW1hZScsICc8aW5maWxlLm1hZT4nLCAnLW9tYWUnLCAnPG91dGZpbGUubWFlPic=

>  <s_epik_input>  (1) 
Q2xDMT1bQ0hdW0NIMl1bQ0hdPUMoT1tDSDJdT1tDSDNdKVtDSF09QzFbU0BAXSg9TylDKD1PKVtDSDJdW0NASF0oW0NIM10pW0NAQEhdMltDSDJdTihbQ0gyXVtDQEhdMkYpYzNuW2NIXVtjSF1bY0hdW2NIXTM=

>  <s_glide_docking_method>  (1) 
confgen

>  <s_i_glide_gridfile>  (1) 
gpcr_drd2_6luq_protein_autoprepared_prepared

>  <s_lp_Force_Field>  (1) 
S-OPLS

>  <s_lp_Variant>  (1) 
DiffSBDD_35-1

>  <s_m_source_file>  (1) 
generated_generic_title2_ligand_DiffSBDD_2026-06-23_prepared.sdf

>  <GenAI_Model>  (1) 
DiffSBDD

>  <Protein>  (1) 
generic_title2

$$$$
DiffSBDD_78
     RDKit          3D

  0  0  0  0  0  0  0  0  0  0999 V3000
M  V30 BEGIN CTAB
M  V30 COUNTS 81 85 0 0 1
M  V30 BEGIN ATOM
M  V30 1 C 11.400714 8.737265 -7.845911 0 CFG=2
M  V30 2 C 12.576385 8.147294 -8.636334 0
M  V30 3 C 6.447021 7.177801 -12.644233 0 CFG=1
M  V30 4 C 7.040178 4.694822 -13.823950 0 CFG=2
M  V30 5 C 11.872120 9.645949 -6.695414 0
M  V30 6 N 6.577830 2.234239 -14.403227 0 CHG=1
M  V30 7 C 5.899049 4.773069 -12.785736 0 CFG=1
M  V30 8 C 7.598486 5.548322 -11.059369 0 CFG=1
M  V30 9 N 10.538391 7.712588 -7.214638 0 CFG=1 CHG=1
M  V30 10 C 9.976309 8.293448 -5.985231 0
M  V30 11 N 8.920096 5.027599 -10.615185 0 CFG=2 CHG=1
M  V30 12 C 8.721627 7.711408 -12.005377 0
M  V30 13 C 7.603528 3.252487 -14.061975 0
M  V30 14 C 7.835396 0.540624 -15.696747 0
M  V30 15 O 8.033732 5.717908 -13.461021 0
M  V30 16 C 9.550468 4.066039 -11.531733 0
M  V30 17 C 8.085059 -0.104844 -17.077801 0 CFG=1
M  V30 18 C 5.204502 7.206097 -11.800095 0
M  V30 19 C 7.759884 6.530360 -12.275078 0 CFG=2
M  V30 20 F 6.971649 -0.739694 -17.450653 0
M  V30 21 C 11.022360 9.283028 -5.476635 0
M  V30 22 C 10.217562 7.471615 -11.835472 0
M  V30 23 O 7.039302 2.557562 -16.751319 0
M  V30 24 C 6.503636 4.520506 -11.386550 0
M  V30 25 C 8.359623 1.012337 -18.101800 0 CFG=1
M  V30 26 C 9.989989 5.650111 -8.357469 0
M  V30 27 C 6.679713 1.556786 -15.854070 0 CFG=2
M  V30 28 C 9.524401 7.068857 -8.087146 0
M  V30 29 C 9.114408 4.689064 -9.174528 0
M  V30 30 C 9.195274 -1.173203 -17.075273 0
M  V30 31 C 7.239940 2.071863 -18.078378 0
M  V30 32 C 5.375407 6.187159 -12.920415 0 CFG=1
M  V30 33 F 9.523768 1.609008 -17.835987 0
M  V30 34 H 10.794465 9.294861 -8.553411 0
M  V30 35 H 13.160866 8.943013 -9.097476 0
M  V30 36 H 13.252053 7.590252 -7.991163 0
M  V30 37 H 12.239888 7.498372 -9.443359 0
M  V30 38 H 6.550071 7.928461 -13.421528 0
M  V30 39 H 6.637256 5.010172 -14.788083 0
M  V30 40 H 11.775416 10.702159 -6.941546 0
M  V30 41 H 12.925788 9.483904 -6.462104 0
M  V30 42 H 6.593257 1.508388 -13.699258 0
M  V30 43 H 5.091579 4.074787 -12.998831 0
M  V30 44 H 7.218802 5.990233 -10.156764 0
M  V30 45 H 9.031417 8.790615 -6.209414 0
M  V30 46 H 9.775470 7.508450 -5.255986 0
M  V30 47 H 8.369058 8.230962 -11.119087 0
M  V30 48 H 8.613701 8.461505 -12.785139 0
M  V30 49 H 8.386175 3.295546 -14.818661 0
M  V30 50 H 8.048454 2.818144 -13.175570 0
M  V30 51 H 8.730247 1.050094 -15.343440 0
M  V30 52 H 7.561802 -0.217012 -14.961912 0
M  V30 53 H 9.375625 3.021894 -11.271332 0
M  V30 54 H 9.399489 4.220693 -12.580595 0
M  V30 55 H 10.575432 4.318074 -11.533640 0
M  V30 56 H 4.552264 8.058668 -11.963970 0
M  V30 57 H 5.222776 6.842877 -10.778770 0
M  V30 58 H 10.575225 10.159035 -5.008827 0
M  V30 59 H 11.651210 8.804293 -4.725984 0
M  V30 60 H 10.575478 8.390209 -11.397966 0
M  V30 61 H 10.718688 7.280631 -12.785050 0
M  V30 62 H 10.529393 6.723087 -11.121848 0
M  V30 63 H 5.723718 4.515638 -10.622575 0
M  V30 64 H 6.955191 3.563320 -11.360107 0
M  V30 65 H 8.456765 0.598379 -19.105659 0
M  V30 66 H 10.138995 5.190277 -7.384255 0
M  V30 67 H 10.975411 5.700047 -8.785096 0
M  V30 68 H 5.735616 1.078468 -16.125025 0
M  V30 69 H 9.366066 7.628989 -9.008309 0
M  V30 70 H 8.572739 7.016408 -7.568981 0
M  V30 71 H 8.176629 4.443390 -8.675326 0
M  V30 72 H 9.775400 3.813175 -9.134143 0
M  V30 73 H 10.162863 -0.771118 -16.786903 0
M  V30 74 H 8.970937 -1.985197 -16.384828 0
M  V30 75 H 9.311734 -1.607548 -18.068680 0
M  V30 76 H 6.306691 1.650519 -18.456819 0
M  V30 77 H 7.491390 2.908251 -18.731652 0
M  V30 78 H 4.942946 6.379459 -13.892999 0
M  V30 79 H 11.160929 6.985545 -6.891267 0
M  V30 80 H 9.489469 5.853669 -10.723114 0
M  V30 81 H 5.681553 2.692563 -14.332843 0
M  V30 END ATOM
M  V30 BEGIN BOND
M  V30 1 1 2 1
M  V30 2 1 5 1
M  V30 3 1 7 4
M  V30 4 1 9 1
M  V30 5 1 10 9
M  V30 6 1 11 8
M  V30 7 1 13 4
M  V30 8 1 13 6
M  V30 9 1 15 4
M  V30 10 1 16 11
M  V30 11 1 17 14
M  V30 12 1 18 3
M  V30 13 1 19 3
M  V30 14 1 19 8
M  V30 15 1 19 12 CFG=1
M  V30 16 1 19 15
M  V30 17 1 17 20 CFG=3
M  V30 18 1 21 5
M  V30 19 1 21 10
M  V30 20 1 22 12
M  V30 21 1 24 7
M  V30 22 1 24 8
M  V30 23 1 25 17
M  V30 24 1 27 6
M  V30 25 1 27 14
M  V30 26 1 27 23
M  V30 27 1 28 9
M  V30 28 1 28 26
M  V30 29 1 29 11
M  V30 30 1 29 26
M  V30 31 1 30 17
M  V30 32 1 31 23
M  V30 33 1 31 25
M  V30 34 1 32 3
M  V30 35 1 32 7
M  V30 36 1 32 18
M  V30 37 1 33 25
M  V30 38 1 1 34 CFG=3
M  V30 39 1 35 2
M  V30 40 1 36 2
M  V30 41 1 37 2
M  V30 42 1 3 38 CFG=3
M  V30 43 1 4 39 CFG=3
M  V30 44 1 40 5
M  V30 45 1 41 5
M  V30 46 1 42 6
M  V30 47 1 7 43 CFG=3
M  V30 48 1 8 44 CFG=1
M  V30 49 1 45 10
M  V30 50 1 46 10
M  V30 51 1 47 12
M  V30 52 1 48 12
M  V30 53 1 49 13
M  V30 54 1 50 13
M  V30 55 1 51 14
M  V30 56 1 52 14
M  V30 57 1 53 16
M  V30 58 1 54 16
M  V30 59 1 55 16
M  V30 60 1 56 18
M  V30 61 1 57 18
M  V30 62 1 58 21
M  V30 63 1 59 21
M  V30 64 1 60 22
M  V30 65 1 61 22
M  V30 66 1 62 22
M  V30 67 1 63 24
M  V30 68 1 64 24
M  V30 69 1 25 65 CFG=3
M  V30 70 1 66 26
M  V30 71 1 67 26
M  V30 72 1 27 68 CFG=3
M  V30 73 1 69 28
M  V30 74 1 70 28
M  V30 75 1 71 29
M  V30 76 1 72 29
M  V30 77 1 73 30
M  V30 78 1 74 30
M  V30 79 1 75 30
M  V30 80 1 76 31
M  V30 81 1 77 31
M  V30 82 1 32 78 CFG=3
M  V30 83 1 9 79 CFG=1
M  V30 84 1 11 80 CFG=1
M  V30 85 1 81 6
M  V30 END BOND
M  V30 END CTAB
M  END
>  <i_epik_Tot_Q>  (1) 
3

>  <i_epik_Tot_abs_Q>  (1) 
3

>  <i_i_glide_confnum>  (1) 
502

>  <i_i_glide_lignum>  (1) 
134

>  <i_i_glide_posenum>  (1) 
168

>  <i_i_glide_rotatable_bonds>  (1) 
9

>  <i_lp_mmshare_version>  (1) 
72125

>  <i_m_source_file_index>  (1) 
79

>  <i_f3d_flags>  (1) 
0

>  <num_sample>  (1) 
100

>  <b_lp_Chiralities_Consistent>  (1) 
1

>  <r_epik_Charging_Adjusted_Penalty>  (1) 
1.7942086838225126

>  <r_epik_Ionization_Penalty>  (1) 
0.94562311220168549

>  <r_epik_Ionization_Penalty_Charging>  (1) 
0.94562311220168382

>  <r_epik_Ionization_Penalty_Neutral>  (1) 
1.710257484888175e-15

>  <r_epik_State_Penalty>  (1) 
0.84858557162082893

>  <r_glide_ring_energy>  (1) 
0

>  <r_i_docking_score>  (1) 
-3.8541647408813802

>  <r_i_glide_ecoul>  (1) 
-5.8069516047763869

>  <r_i_glide_eff_state_penalty>  (1) 
0.84858557162082893

>  <r_i_glide_einternal>  (1) 
18.785591792457193

>  <r_i_glide_emodel>  (1) 
-31.818133353939459

>  <r_i_glide_emodel_strain>  (1) 
3.0290391352690875

>  <r_i_glide_energy>  (1) 
-31.007076564899307

>  <r_i_glide_erotb>  (1) 
0.72404097212868179

>  <r_i_glide_esite>  (1) 
-0.0061328830373821464

>  <r_i_glide_evdw>  (1) 
-25.20012496012292

>  <r_i_glide_gscore>  (1) 
-4.702750312502209

>  <r_i_glide_gscore_strain>  (1) 
0

>  <r_i_glide_hbond>  (1) 
0

>  <r_i_glide_ligand_efficiency>  (1) 
-0.1167928709357994

>  <r_i_glide_ligand_efficiency_ln>  (1) 
-0.85714628257500192

>  <r_i_glide_ligand_efficiency_sa>  (1) 
-0.37461714302534838

>  <r_i_glide_lipo>  (1) 
-2.0166056939899892

>  <r_i_glide_metal>  (1) 
-0

>  <r_i_glide_rewards>  (1) 
-1.2730037188809151

>  <r_lp_Energy>  (1) 
74.691324999999992

>  <s_epik_Chemistry_Notes>  (1) 
This compound contains an acetal/aminal-like group ( X-CH(R)-Y where X, Y are N, S, or O) that may be acid/base labile, releasing an aldehyde.

>  <s_epik_cmdline>  (1) 
J2VwaWtfcHl0aG9uJywgJy1waHQnLCAnMS4wJywgJy1waCcsICc3LjQnLCAnLXRuJywgJzgnLCAnLW1hJywgJzUwMCcsICctaW1hZScsICc8aW5maWxlLm1hZT4nLCAnLW9tYWUnLCAnPG91dGZpbGUubWFlPic=

>  <s_epik_input>  (1) 
W0NIM11bQ0BASF0xW0NIMl1bQ0gyXVtDSDJdTjFbQ0gyXVtDSDJdW0NIMl1OKFtDSDNdKVtDQEBIXTJbQ0gyXVtDQEBIXShbQ0BASF0oW0NIMl0zKVtDQEBIXTNbQ0BAXTI0W0NIMl1bQ0gzXSlbQ0BASF0oTzQpW0NIMl1bTkhdW0NASF0oW0NIMl1bQ0BdNShGKVtDSDNdKU9bQ0gyXVtDQEhdNUY=

>  <s_glide_docking_method>  (1) 
confgen

>  <s_i_glide_gridfile>  (1) 
gpcr_drd2_6luq_protein_autoprepared_prepared

>  <s_lp_Force_Field>  (1) 
S-OPLS

>  <s_lp_Variant>  (1) 
DiffSBDD_78-6

>  <s_m_source_file>  (1) 
generated_generic_title2_ligand_DiffSBDD_2026-06-23_prepared.sdf

>  <GenAI_Model>  (1) 
DiffSBDD

>  <Protein>  (1) 
generic_title2

$$$$
DiffSBDD_61
     RDKit          3D

  0  0  0  0  0  0  0  0  0  0999 V3000
M  V30 BEGIN CTAB
M  V30 COUNTS 46 47 0 0 1
M  V30 BEGIN ATOM
M  V30 1 C 8.109646 5.023901 -9.573079 0
M  V30 2 O 5.377181 4.962206 -12.895350 0 CHG=-1
M  V30 3 C 7.169749 0.992012 -18.396238 0
M  V30 4 O 7.472574 6.140352 -11.972389 0
M  V30 5 N 9.375470 7.066870 -8.861992 0 CFG=1 CHG=1
M  V30 6 O 7.377791 0.420012 -19.487177 0 CHG=-1
M  V30 7 C 6.225570 1.492936 -13.292207 0
M  V30 8 C 9.259297 5.998631 -9.883250 0 CFG=2
M  V30 9 P 9.047195 6.698729 -11.635222 0
M  V30 10 F 8.304402 2.464896 -16.157707 0
M  V30 11 C 11.332364 7.996716 -7.768708 0
M  V30 12 N 6.847028 0.227877 -17.326865 0
M  V30 13 O 6.407442 6.884560 -14.231164 0
M  V30 14 O 9.061649 8.179852 -11.584907 0 CHG=-1
M  V30 15 C 5.752063 -0.009810 -15.152452 0
M  V30 16 O 7.605200 4.604165 -14.111354 0
M  V30 17 F 9.587513 8.659430 -6.384978 0
M  V30 18 P 6.575070 5.705777 -13.348653 0
M  V30 19 C 6.655949 0.695391 -15.970829 0
M  V30 20 C 7.376950 1.807673 -15.426463 0
M  V30 21 C 9.442195 6.589533 -7.458763 0
M  V30 22 C 10.510013 8.007373 -9.059641 0
M  V30 23 C 10.314703 7.594730 -6.714167 0 CFG=1
M  V30 24 C 7.147969 2.199310 -14.088158 0
M  V30 25 O 7.224542 2.233214 -18.292508 0
M  V30 26 C 7.911018 3.371141 -13.499895 0
M  V30 27 C 5.534326 0.390249 -13.821560 0
M  V30 28 O 10.040089 5.990449 -12.467541 0
M  V30 29 H 8.248584 4.499522 -8.628510 0
M  V30 30 H 7.150266 5.540711 -9.523639 0
M  V30 31 H 8.036312 4.259910 -10.344693 0
M  V30 32 H 6.055989 1.793708 -12.269257 0
M  V30 33 H 10.175117 5.418937 -9.853010 0
M  V30 34 H 12.110562 7.235588 -7.833642 0
M  V30 35 H 11.813913 8.952753 -7.561773 0
M  V30 36 H 6.678037 -0.750742 -17.495089 0
M  V30 37 H 5.217012 -0.859627 -15.550272 0
M  V30 38 H 8.454038 6.475927 -7.013064 0
M  V30 39 H 9.933307 5.615484 -7.425675 0
M  V30 40 H 11.134531 7.762127 -9.919571 0
M  V30 41 H 10.092855 9.000650 -9.229936 0
M  V30 42 H 10.759213 7.195009 -5.802016 0
M  V30 43 H 7.719643 3.424033 -12.428223 0
M  V30 44 H 8.975394 3.188757 -13.584814 0
M  V30 45 H 4.834240 -0.153528 -13.204144 0
M  V30 46 H 8.497334 7.590250 -8.979045 0
M  V30 END ATOM
M  V30 BEGIN BOND
M  V30 1 1 6 3
M  V30 2 1 8 1
M  V30 3 1 8 5
M  V30 4 1 9 4
M  V30 5 1 9 8
M  V30 6 1 12 3
M  V30 7 1 14 9
M  V30 8 1 18 2
M  V30 9 1 18 4
M  V30 10 2 18 13
M  V30 11 1 18 16
M  V30 12 1 19 12
M  V30 13 2 19 15
M  V30 14 1 20 10
M  V30 15 1 20 19
M  V30 16 1 21 5
M  V30 17 1 22 5
M  V30 18 1 22 11
M  V30 19 1 23 11
M  V30 20 1 23 17
M  V30 21 1 23 21
M  V30 22 1 24 7
M  V30 23 2 24 20
M  V30 24 2 25 3
M  V30 25 1 26 16
M  V30 26 1 26 24
M  V30 27 2 27 7
M  V30 28 1 27 15
M  V30 29 2 28 9
M  V30 30 1 29 1
M  V30 31 1 30 1
M  V30 32 1 31 1
M  V30 33 1 32 7
M  V30 34 1 8 33 CFG=3
M  V30 35 1 34 11
M  V30 36 1 35 11
M  V30 37 1 36 12
M  V30 38 1 37 15
M  V30 39 1 38 21
M  V30 40 1 39 21
M  V30 41 1 40 22
M  V30 42 1 41 22
M  V30 43 1 23 42 CFG=1
M  V30 44 1 43 26
M  V30 45 1 44 26
M  V30 46 1 45 27
M  V30 47 1 5 46 CFG=1
M  V30 END BOND
M  V30 END CTAB
M  END
>  <i_epik_Tot_Q>  (1) 
-2

>  <i_epik_Tot_abs_Q>  (1) 
4

>  <i_i_glide_confnum>  (1) 
38

>  <i_i_glide_lignum>  (1) 
97

>  <i_i_glide_posenum>  (1) 
48

>  <i_i_glide_rotatable_bonds>  (1) 
9

>  <i_lp_mmshare_version>  (1) 
72125

>  <i_m_source_file_index>  (1) 
62

>  <i_f3d_flags>  (1) 
0

>  <num_sample>  (1) 
100

>  <b_lp_Chiralities_Consistent>  (1) 
1

>  <r_epik_Charging_Adjusted_Penalty>  (1) 
0.22521151081801519

>  <r_epik_Ionization_Penalty>  (1) 
0.079461215956128484

>  <r_epik_Ionization_Penalty_Charging>  (1) 
0.079461215147622277

>  <r_epik_Ionization_Penalty_Neutral>  (1) 
8.0850620194651714e-10

>  <r_epik_State_Penalty>  (1) 
0.14575029567039291

>  <r_glide_ring_energy>  (1) 
0

>  <r_i_docking_score>  (1) 
-3.8503577650623648

>  <r_i_glide_ecoul>  (1) 
-3.0255103379898078

>  <r_i_glide_eff_state_penalty>  (1) 
0.14575029567039291

>  <r_i_glide_einternal>  (1) 
16.629682894603878

>  <r_i_glide_emodel>  (1) 
-38.665255706665249

>  <r_i_glide_emodel_strain>  (1) 
0.52168868771495625

>  <r_i_glide_energy>  (1) 
-37.134400536847032

>  <r_i_glide_erotb>  (1) 
0.71514179105455389

>  <r_i_glide_esite>  (1) 
-0.14834061589759784

>  <r_i_glide_evdw>  (1) 
-34.108890198857225

>  <r_i_glide_gscore>  (1) 
-3.9961080607327579

>  <r_i_glide_gscore_strain>  (1) 
0

>  <r_i_glide_hbond>  (1) 
-0.20000000000000001

>  <r_i_glide_ligand_efficiency>  (1) 
-0.13751277732365588

>  <r_i_glide_ligand_efficiency_ln>  (1) 
-0.88877562359276696

>  <r_i_glide_ligand_efficiency_sa>  (1) 
-0.41756978311300719

>  <r_i_glide_lipo>  (1) 
-1.1274485697084935

>  <r_i_glide_metal>  (1) 
-0

>  <r_i_glide_rewards>  (1) 
-1.0761896055398872

>  <r_lp_Energy>  (1) 
5.9120159999999995

>  <s_epik_cmdline>  (1) 
J2VwaWtfcHl0aG9uJywgJy1waHQnLCAnMS4wJywgJy1waCcsICc3LjQnLCAnLXRuJywgJzgnLCAnLW1hJywgJzUwMCcsICctaW1hZScsICc8aW5maWxlLm1hZT4nLCAnLW9tYWUnLCAnPG91dGZpbGUubWFlPic=

>  <s_epik_input>  (1) 
W0NIMl0xW0NIMl1bQ0BASF0oRilbQ0gyXU4xW0NAQEhdKFtDSDNdKVtQQF0oPU8pKFtPSF0pT1tQQEBdKD1PKShbT0hdKU9bQ0gyXWMoYzJGKVtjSF1bY0hdW2NIXWMyW05IXUMoPU8pW09IXQ==

>  <s_glide_docking_method>  (1) 
confgen

>  <s_i_glide_gridfile>  (1) 
gpcr_drd2_6luq_protein_autoprepared_prepared

>  <s_lp_Force_Field>  (1) 
S-OPLS

>  <s_lp_Variant>  (1) 
DiffSBDD_61-2

>  <s_m_source_file>  (1) 
generated_generic_title2_ligand_DiffSBDD_2026-06-23_prepared.sdf

>  <GenAI_Model>  (1) 
DiffSBDD

>  <Protein>  (1) 
generic_title2

$$$$
DiffSBDD_94
     RDKit          3D

  0  0  0  0  0  0  0  0  0  0999 V3000
M  V30 BEGIN CTAB
M  V30 COUNTS 65 69 0 0 1
M  V30 BEGIN ATOM
M  V30 1 C 9.148580 4.516860 -11.724950 0
M  V30 2 C 8.941420 5.371799 -16.038070 0
M  V30 3 O 4.815438 -0.913957 -17.365224 0
M  V30 4 C 9.110709 4.962632 -13.193256 0
M  V30 5 C 6.061145 -0.417660 -17.807638 0 CFG=1
M  V30 6 N 11.512776 9.322628 -6.158705 0
M  V30 7 C 11.375425 8.492616 -5.093003 0
M  V30 8 C 8.407773 5.489971 -10.818905 0 CFG=2
M  V30 9 C 11.019495 7.528979 -7.580464 0
M  V30 10 C 7.045376 -0.197082 -16.669919 0 CFG=1
M  V30 11 Cl 6.044999 4.127768 -11.069251 0
M  V30 12 C 7.184841 -1.398361 -17.586836 0
M  V30 13 C 10.821009 7.061401 -9.016441 0 CFG=2
M  V30 14 C 6.959902 4.785696 -15.830045 0
M  V30 15 C 7.798752 5.845029 -15.118798 0 CFG=1
M  V30 16 C 6.962276 5.629483 -11.346160 0 CFG=2
M  V30 17 C 7.377924 2.160447 -17.501130 0 CFG=1
M  V30 18 C 11.867816 7.659606 -9.978807 0
M  V30 19 C 11.049283 7.133170 -5.223247 0
M  V30 20 O 5.817529 6.516180 -13.259487 0
M  V30 21 N 11.330610 8.839413 -7.404440 0
M  V30 22 N 8.207909 4.112745 -16.188202 0 CFG=1 CHG=1
M  V30 23 C 8.000720 0.982651 -16.727702 0
M  V30 24 N 7.853822 5.596473 -13.659596 0
M  V30 25 F 6.533766 -0.407744 -15.401296 0
M  V30 26 C 8.250603 3.439848 -17.505769 0
M  V30 27 C 10.866371 6.634843 -6.511820 0
M  V30 28 C 5.962298 0.540386 -18.989111 0
M  V30 29 O 7.419159 2.222689 -19.918286 0
M  V30 30 C 6.832314 5.958498 -12.840887 0
M  V30 31 C 9.375901 7.285537 -9.481426 0
M  V30 32 C 6.966303 1.693625 -18.905888 0
M  V30 33 N 9.135029 6.763403 -10.826735 0
M  V30 34 H 10.175548 4.390945 -11.396505 0
M  V30 35 H 8.697530 3.528786 -11.638076 0
M  V30 36 H 9.939988 5.275956 -15.612714 0
M  V30 37 H 8.980308 5.961494 -16.958695 0
M  V30 38 H 4.935985 -1.300634 -16.508264 0
M  V30 39 H 9.349894 4.079025 -13.779508 0
M  V30 40 H 9.919534 5.678020 -13.350487 0
M  V30 41 H 11.529897 8.929789 -4.117420 0
M  V30 42 H 8.387180 5.065236 -9.814220 0
M  V30 43 H 6.935382 -2.378532 -17.185249 0
M  V30 44 H 7.999487 -1.394002 -18.309440 0
M  V30 45 H 10.975346 5.990320 -8.989117 0
M  V30 46 H 6.420207 5.189694 -16.689648 0
M  V30 47 H 6.311507 4.191772 -15.184318 0
M  V30 48 H 7.443425 6.847234 -15.358137 0
M  V30 49 H 6.424845 6.390195 -10.785350 0
M  V30 50 H 6.435932 2.390402 -17.008294 0
M  V30 51 H 12.879573 7.529815 -9.595590 0
M  V30 52 H 11.815547 7.191334 -10.961921 0
M  V30 53 H 11.705632 8.728402 -10.118762 0
M  V30 54 H 10.945619 6.495660 -4.357528 0
M  V30 55 H 8.932778 0.666216 -17.199264 0
M  V30 56 H 8.254069 1.274756 -15.707630 0
M  V30 57 H 9.284515 3.190529 -17.751192 0
M  V30 58 H 7.909505 4.145847 -18.265842 0
M  V30 59 H 10.612828 5.599410 -6.680679 0
M  V30 60 H 6.096423 -0.013434 -19.918966 0
M  V30 61 H 4.960652 0.969094 -19.013578 0
M  V30 62 H 9.167511 8.356459 -9.486232 0
M  V30 63 H 8.690340 6.836316 -8.759100 0
M  V30 64 H 8.516894 7.438852 -11.257520 0
M  V30 65 H 8.474486 3.482210 -15.445549 0
M  V30 END ATOM
M  V30 BEGIN BOND
M  V30 1 1 4 1
M  V30 2 1 5 3 CFG=1
M  V30 3 1 7 6
M  V30 4 1 8 1
M  V30 5 1 10 5
M  V30 6 1 12 5
M  V30 7 1 12 10
M  V30 8 1 13 9
M  V30 9 1 15 2
M  V30 10 1 15 14
M  V30 11 1 16 8
M  V30 12 1 16 11
M  V30 13 1 18 13
M  V30 14 2 19 7
M  V30 15 2 21 6
M  V30 16 1 21 9
M  V30 17 1 22 2
M  V30 18 1 22 14
M  V30 19 1 23 10
M  V30 20 1 23 17
M  V30 21 1 24 4
M  V30 22 1 24 15
M  V30 23 1 10 25 CFG=1
M  V30 24 1 26 17
M  V30 25 1 26 22
M  V30 26 2 27 9
M  V30 27 1 27 19
M  V30 28 1 28 5
M  V30 29 1 30 16
M  V30 30 2 30 20
M  V30 31 1 30 24
M  V30 32 1 31 13
M  V30 33 1 32 17
M  V30 34 1 32 28
M  V30 35 2 32 29
M  V30 36 1 33 8
M  V30 37 1 33 31
M  V30 38 1 34 1
M  V30 39 1 35 1
M  V30 40 1 36 2
M  V30 41 1 37 2
M  V30 42 1 38 3
M  V30 43 1 39 4
M  V30 44 1 40 4
M  V30 45 1 41 7
M  V30 46 1 8 42 CFG=1
M  V30 47 1 43 12
M  V30 48 1 44 12
M  V30 49 1 13 45 CFG=1
M  V30 50 1 46 14
M  V30 51 1 47 14
M  V30 52 1 15 48 CFG=1
M  V30 53 1 16 49 CFG=1
M  V30 54 1 17 50 CFG=1
M  V30 55 1 51 18
M  V30 56 1 52 18
M  V30 57 1 53 18
M  V30 58 1 54 19
M  V30 59 1 55 23
M  V30 60 1 56 23
M  V30 61 1 57 26
M  V30 62 1 58 26
M  V30 63 1 59 27
M  V30 64 1 60 28
M  V30 65 1 61 28
M  V30 66 1 62 31
M  V30 67 1 63 31
M  V30 68 1 64 33
M  V30 69 1 22 65 CFG=1
M  V30 END BOND
M  V30 END CTAB
M  END
>  <i_epik_Tot_Q>  (1) 
1

>  <i_epik_Tot_abs_Q>  (1) 
1

>  <i_i_glide_confnum>  (1) 
520

>  <i_i_glide_lignum>  (1) 
181

>  <i_i_glide_posenum>  (1) 
389

>  <i_i_glide_rotatable_bonds>  (1) 
8

>  <i_lp_mmshare_version>  (1) 
72125

>  <i_m_source_file_index>  (1) 
95

>  <i_f3d_flags>  (1) 
0

>  <num_sample>  (1) 
100

>  <b_lp_Chiralities_Consistent>  (1) 
1

>  <r_epik_Charging_Adjusted_Penalty>  (1) 
1.4532026091556733

>  <r_epik_Ionization_Penalty>  (1) 
1.1658176113502041

>  <r_epik_Ionization_Penalty_Charging>  (1) 
0.22723193656236854

>  <r_epik_Ionization_Penalty_Neutral>  (1) 
0.93858567478783561

>  <r_epik_State_Penalty>  (1) 
1.2259706725933048

>  <r_glide_ring_energy>  (1) 
1.3165782718524921

>  <r_i_docking_score>  (1) 
-3.8486663303422333

>  <r_i_glide_ecoul>  (1) 
-4.7212436076993836

>  <r_i_glide_eff_state_penalty>  (1) 
1.2259706725933048

>  <r_i_glide_einternal>  (1) 
10.64212999648479

>  <r_i_glide_emodel>  (1) 
-49.605451950405268

>  <r_i_glide_emodel_strain>  (1) 
1.2304347727704794

>  <r_i_glide_energy>  (1) 
-42.641777537780108

>  <r_i_glide_erotb>  (1) 
0.52602338862990483

>  <r_i_glide_esite>  (1) 
-0.0088613164712803595

>  <r_i_glide_evdw>  (1) 
-37.920533930080722

>  <r_i_glide_gscore>  (1) 
-5.0746370029355381

>  <r_i_glide_gscore_strain>  (1) 
0

>  <r_i_glide_hbond>  (1) 
0

>  <r_i_glide_ligand_efficiency>  (1) 
-0.11662625243461312

>  <r_i_glide_ligand_efficiency_ln>  (1) 
-0.85592346454034185

>  <r_i_glide_ligand_efficiency_sa>  (1) 
-0.37408270846278097

>  <r_i_glide_lipo>  (1) 
-2.1705784994673798

>  <r_i_glide_metal>  (1) 
-0

>  <r_i_glide_rewards>  (1) 
-0.81700733796783964

>  <r_lp_Energy>  (1) 
64.001239999999996

>  <s_epik_cmdline>  (1) 
J2VwaWtfcHl0aG9uJywgJy1waHQnLCAnMS4wJywgJy1waCcsICc3LjQnLCAnLXRuJywgJzgnLCAnLW1hJywgJzUwMCcsICctaW1hZScsICc8aW5maWxlLm1hZT4nLCAnLW9tYWUnLCAnPG91dGZpbGUubWFlPic=

>  <s_epik_input>  (1) 
W2NIXTFbY0hdW2NIXW5uYzFbQ0BIXShbQ0gzXSlbQ0gyXVtOSF1bQ0BASF0yW0NIMl1bQ0gyXU4oQyg9TylbQ0BIXTJDbClbQ0hdM1tDSDJdTihbQ0gyXTMpW0NIMl1bQ0BASF0oQyg9TylbQ0gyXTQpW0NIMl1bQ0BdKEYpKFtDSDJdNSlbQ0BAXTQ1W09IXQ==

>  <s_glide_docking_method>  (1) 
confgen

>  <s_i_glide_gridfile>  (1) 
gpcr_drd2_6luq_protein_autoprepared_prepared

>  <s_lp_Force_Field>  (1) 
S-OPLS

>  <s_lp_Variant>  (1) 
DiffSBDD_94-4

>  <s_m_source_file>  (1) 
generated_generic_title2_ligand_DiffSBDD_2026-06-23_prepared.sdf

>  <GenAI_Model>  (1) 
DiffSBDD

>  <Protein>  (1) 
generic_title2

$$$$
DiffSBDD_90
     RDKit          3D

  0  0  0  0  0  0  0  0  0  0999 V3000
M  V30 BEGIN CTAB
M  V30 COUNTS 80 84 0 0 1
M  V30 BEGIN ATOM
M  V30 1 C 7.637344 5.149499 -16.585576 0
M  V30 2 C 8.452003 4.198525 -15.699185 0 CFG=1
M  V30 3 C 8.124603 4.556760 -12.073175 0
M  V30 4 C 12.676771 4.718088 -18.955414 0 CFG=2
M  V30 5 C 6.717737 4.261701 -13.718001 0
M  V30 6 C 8.528959 4.764243 -10.693787 0 CFG=2
M  V30 7 C 9.323099 2.616196 -18.862471 0 CFG=2
M  V30 8 O 9.096872 5.411841 -18.295146 0 CHG=-1
M  V30 9 C 8.007744 4.755576 -18.025237 0 CFG=1
M  V30 10 C 12.228044 6.588712 -17.180088 0
M  V30 11 O 16.566316 4.390241 -16.759887 0
M  V30 12 C 7.982600 4.292255 -14.274311 0
M  V30 13 C 7.203412 1.859457 -16.286255 0 CFG=2
M  V30 14 O 14.693845 3.166839 -16.991423 0 CHG=-1
M  V30 15 O 12.744662 5.625474 -19.891856 0 CHG=-1
M  V30 16 C 10.889089 2.886051 -18.717928 0 CFG=2
M  V30 17 N 11.277802 4.264137 -19.124449 0 CHG=1
M  V30 18 N 8.353223 3.308309 -17.931554 0 CFG=2 CHG=1
M  V30 19 C 16.346088 6.889528 -18.128500 0
M  V30 20 C 11.715228 1.869843 -19.576055 0
M  V30 21 O 6.669195 1.615426 -15.002243 0
M  V30 22 O 12.333001 0.897753 -18.755630 0
M  V30 23 O 8.793003 -0.731597 -17.177101 0
M  V30 24 C 8.651747 1.449967 -16.226238 0 CFG=1
M  V30 25 C 15.348713 4.236163 -17.020540 0
M  V30 26 C 8.956890 1.111792 -18.731127 0
M  V30 27 N 6.890082 4.427808 -12.377718 0
M  V30 28 O 16.958614 6.140568 -18.893237 0
M  V30 29 C 7.016365 4.689864 -10.142094 0
M  V30 30 N 8.838772 4.473275 -13.198067 0 CHG=1
M  V30 31 C 13.018882 5.313249 -17.552453 0 CFG=2
M  V30 32 O 10.175873 5.630739 -8.450761 0
M  V30 33 O 9.150903 6.023245 -10.491656 0
M  V30 34 C 9.282934 6.414840 -9.157416 0
M  V30 35 C 16.979243 8.202270 -17.675410 0
M  V30 36 C 14.550916 5.511315 -17.412174 0
M  V30 37 C 9.267894 0.586921 -17.319767 0 CFG=2
M  V30 38 C 10.470992 6.177332 -7.174467 0
M  V30 39 N 15.073434 6.680155 -17.607546 0
M  V30 40 C 5.950866 4.488919 -11.313758 0
M  V30 41 C 8.308853 2.902725 -16.501101 0 CFG=1
M  V30 42 H 6.575353 4.953004 -16.442315 0
M  V30 43 H 7.776064 6.201580 -16.345951 0
M  V30 44 H 9.502137 4.494420 -15.732924 0
M  V30 45 H 13.319794 3.848201 -19.031803 0
M  V30 46 H 5.748817 4.145140 -14.167066 0
M  V30 47 H 9.158619 3.931629 -10.385219 0
M  V30 48 H 9.039538 2.924055 -19.870427 0
M  V30 49 H 7.115917 4.834168 -18.649098 0
M  V30 50 H 12.510359 6.952162 -16.190936 0
M  V30 51 H 12.398270 7.399036 -17.891469 0
M  V30 52 H 11.159894 6.390125 -17.150641 0
M  V30 53 H 6.579801 1.495475 -17.100564 0
M  V30 54 H 11.170963 2.794811 -17.668157 0
M  V30 55 H 11.135807 4.367865 -20.116068 0
M  V30 56 H 12.495311 2.327827 -20.181310 0
M  V30 57 H 11.113280 1.383750 -20.340879 0
M  V30 58 H 6.610966 0.677893 -14.873714 0
M  V30 59 H 13.030284 1.311989 -18.261090 0
M  V30 60 H 9.303999 -1.309967 -17.723741 0
M  V30 61 H 8.975400 1.190208 -15.222910 0
M  V30 62 H 7.895040 0.981338 -18.944355 0
M  V30 63 H 9.447451 0.481715 -19.469287 0
M  V30 64 H 6.934164 3.895238 -9.405040 0
M  V30 65 H 6.718703 5.590291 -9.616820 0
M  V30 66 H 12.714641 4.580876 -16.803558 0
M  V30 67 H 9.626664 7.450617 -9.182031 0
M  V30 68 H 8.343475 6.390209 -8.610258 0
M  V30 69 H 17.495416 8.672636 -18.512216 0
M  V30 70 H 16.237444 8.909311 -17.301985 0
M  V30 71 H 17.711631 8.009135 -16.891177 0
M  V30 72 H 10.346692 0.567917 -17.183555 0
M  V30 73 H 11.249906 5.590331 -6.690929 0
M  V30 74 H 10.840757 7.201191 -7.249172 0
M  V30 75 H 9.587848 6.170264 -6.532893 0
M  V30 76 H 5.294540 5.350058 -11.453773 0
M  V30 77 H 5.384702 3.563261 -11.246913 0
M  V30 78 H 9.850595 4.546569 -13.252532 0
M  V30 79 H 10.603961 4.921258 -18.694529 0
M  V30 80 H 7.486987 2.912923 -18.265506 0
M  V30 END ATOM
M  V30 BEGIN BOND
M  V30 1 1 2 1
M  V30 2 1 6 3
M  V30 3 1 9 1
M  V30 4 1 9 8
M  V30 5 1 12 2
M  V30 6 2 12 5
M  V30 7 1 15 4
M  V30 8 1 16 7
M  V30 9 1 17 4
M  V30 10 1 17 16
M  V30 11 1 18 7
M  V30 12 1 18 9
M  V30 13 1 20 16
M  V30 14 1 21 13
M  V30 15 1 22 20
M  V30 16 1 24 13
M  V30 17 2 25 11
M  V30 18 1 25 14
M  V30 19 1 26 7
M  V30 20 1 27 3
M  V30 21 1 27 5
M  V30 22 2 28 19
M  V30 23 1 29 6
M  V30 24 2 30 3
M  V30 25 1 30 12
M  V30 26 1 31 4
M  V30 27 1 31 10
M  V30 28 1 33 6
M  V30 29 1 34 32
M  V30 30 1 34 33
M  V30 31 1 35 19
M  V30 32 1 36 25
M  V30 33 1 36 31
M  V30 34 1 37 23
M  V30 35 1 37 24
M  V30 36 1 37 26
M  V30 37 1 38 32
M  V30 38 1 39 19
M  V30 39 2 39 36
M  V30 40 1 40 27
M  V30 41 1 40 29
M  V30 42 1 41 2 CFG=1
M  V30 43 1 41 13
M  V30 44 1 41 18
M  V30 45 1 41 24
M  V30 46 1 42 1
M  V30 47 1 43 1
M  V30 48 1 2 44 CFG=1
M  V30 49 1 4 45 CFG=3
M  V30 50 1 46 5
M  V30 51 1 6 47 CFG=1
M  V30 52 1 7 48 CFG=3
M  V30 53 1 9 49 CFG=3
M  V30 54 1 50 10
M  V30 55 1 51 10
M  V30 56 1 52 10
M  V30 57 1 13 53 CFG=3
M  V30 58 1 16 54 CFG=1
M  V30 59 1 55 17
M  V30 60 1 56 20
M  V30 61 1 57 20
M  V30 62 1 58 21
M  V30 63 1 59 22
M  V30 64 1 60 23
M  V30 65 1 24 61 CFG=1
M  V30 66 1 62 26
M  V30 67 1 63 26
M  V30 68 1 64 29
M  V30 69 1 65 29
M  V30 70 1 31 66 CFG=1
M  V30 71 1 67 34
M  V30 72 1 68 34
M  V30 73 1 69 35
M  V30 74 1 70 35
M  V30 75 1 71 35
M  V30 76 1 37 72 CFG=1
M  V30 77 1 73 38
M  V30 78 1 74 38
M  V30 79 1 75 38
M  V30 80 1 76 40
M  V30 81 1 77 40
M  V30 82 1 78 30
M  V30 83 1 79 17
M  V30 84 1 18 80 CFG=3
M  V30 END BOND
M  V30 END CTAB
M  END
>  <i_epik_Tot_Q>  (1) 
0

>  <i_epik_Tot_abs_Q>  (1) 
6

>  <i_i_glide_confnum>  (1) 
676

>  <i_i_glide_lignum>  (1) 
169

>  <i_i_glide_posenum>  (1) 
359

>  <i_i_glide_rotatable_bonds>  (1) 
15

>  <i_lp_mmshare_version>  (1) 
72125

>  <i_m_source_file_index>  (1) 
91

>  <i_f3d_flags>  (1) 
0

>  <num_sample>  (1) 
100

>  <b_lp_Chiralities_Consistent>  (1) 
1

>  <r_epik_Charging_Adjusted_Penalty>  (1) 
0.35079833336250127

>  <r_epik_Ionization_Penalty>  (1) 
1.4702178244609605

>  <r_epik_Ionization_Penalty_Charging>  (1) 
0.099885809697688246

>  <r_epik_Ionization_Penalty_Neutral>  (1) 
1.3703320147632723

>  <r_epik_State_Penalty>  (1) 
0.25091252366481304

>  <r_glide_ring_energy>  (1) 
0

>  <r_i_docking_score>  (1) 
-3.8454238964933878

>  <r_i_glide_ecoul>  (1) 
-7.1740543201678086

>  <r_i_glide_eff_state_penalty>  (1) 
0.25091252366481304

>  <r_i_glide_einternal>  (1) 
10.9193771857918

>  <r_i_glide_emodel>  (1) 
-44.033732156060871

>  <r_i_glide_emodel_strain>  (1) 
1.275413692826362

>  <r_i_glide_energy>  (1) 
-38.11281242393072

>  <r_i_glide_erotb>  (1) 
0.57888693115673628

>  <r_i_glide_esite>  (1) 
-0.10685143188518559

>  <r_i_glide_evdw>  (1) 
-30.938758103762915

>  <r_i_glide_gscore>  (1) 
-4.0963364201582007

>  <r_i_glide_gscore_strain>  (1) 
0

>  <r_i_glide_hbond>  (1) 
-0.16

>  <r_i_glide_ligand_efficiency>  (1) 
-0.09379082674374116

>  <r_i_glide_ligand_efficiency_ln>  (1) 
-0.81581947662509757

>  <r_i_glide_ligand_efficiency_sa>  (1) 
-0.323411145767518

>  <r_i_glide_lipo>  (1) 
-1.3148384596083937

>  <r_i_glide_metal>  (1) 
-0

>  <r_i_glide_rewards>  (1) 
-0.47048740660804095

>  <r_lp_Energy>  (1) 
80.22188899999999

>  <r_lp_tautomer_probability>  (1) 
1

>  <s_epik_Chemistry_Notes>  (1) 
This compound has an imine and may undergo hydrolysis. This compound contains an acetal/aminal-like group ( X-CH(R)-Y where X, Y are N, S, or O) that may be acid/base labile, releasing an aldehyde.

>  <s_epik_cmdline>  (1) 
J2VwaWtfcHl0aG9uJywgJy1waHQnLCAnMS4wJywgJy1waCcsICc3LjQnLCAnLXRuJywgJzgnLCAnLW1hJywgJzUwMCcsICctaW1hZScsICc8aW5maWxlLm1hZT4nLCAnLW9tYWUnLCAnPG91dGZpbGUubWFlPic=

>  <s_epik_input>  (1) 
W0NIM11PW0NIMl1PW0NASF0xW0NIMl1bQ0gyXW4oYzEyKVtjSF1jKG4yKVtDQEBIXTNbQ0gyXVtDQEBIXShbT0hdKU4oW0NAQF0zNDUpW0NASF0oW0NIMl1bQ0BIXShbT0hdKVtDQEBIXTVbQ0BIXTRbT0hdKVtDQEBIXShbQ0gyXVtPSF0pW05IXVtDQEBIXShbT0hdKVtDQEhdKFtDSDNdKUMoXEMoPU8pW09IXSk9TlxDKD1PKVtDSDNd

>  <s_glide_docking_method>  (1) 
confgen

>  <s_i_glide_gridfile>  (1) 
gpcr_drd2_6luq_protein_autoprepared_prepared

>  <s_lp_Force_Field>  (1) 
S-OPLS

>  <s_lp_Variant>  (1) 
DiffSBDD_90-4

>  <s_m_source_file>  (1) 
generated_generic_title2_ligand_DiffSBDD_2026-06-23_prepared.sdf

>  <GenAI_Model>  (1) 
DiffSBDD

>  <Protein>  (1) 
generic_title2

$$$$
DiffSBDD_90
     RDKit          3D

  0  0  0  0  0  0  0  0  0  0999 V3000
M  V30 BEGIN CTAB
M  V30 COUNTS 80 84 0 0 1
M  V30 BEGIN ATOM
M  V30 1 C 6.903248 7.280519 -12.495019 0
M  V30 2 C 8.255328 6.589726 -12.685062 0 CFG=1
M  V30 3 C 10.062331 7.627361 -9.713743 0
M  V30 4 C 6.871387 3.418804 -18.435768 0 CFG=2
M  V30 5 C 10.658745 7.189334 -11.763907 0
M  V30 6 C 10.231835 8.000737 -8.332850 0 CFG=2
M  V30 7 C 6.424495 4.322603 -14.769592 0 CFG=2
M  V30 8 O 6.115343 7.190155 -14.796428 0
M  V30 9 C 6.031986 6.565907 -13.535081 0 CFG=1
M  V30 10 C 7.580813 2.732329 -20.876590 0
M  V30 11 O 9.745640 2.015457 -17.429106 0
M  V30 12 C 9.290245 6.994909 -11.682185 0
M  V30 13 C 7.796299 4.182750 -11.687051 0 CFG=2
M  V30 14 O 9.571230 -0.219191 -17.582108 0 CHG=-1
M  V30 15 O 6.928118 4.649998 -18.885171 0 CHG=-1
M  V30 16 C 7.113222 4.654203 -16.158983 0 CFG=2
M  V30 17 N 7.375451 3.464265 -17.027703 0 CHG=1
M  V30 18 N 6.609967 5.223396 -13.630003 0
M  V30 19 C 6.256800 0.114400 -19.985621 0
M  V30 20 C 8.407281 5.492005 -16.165373 0
M  V30 21 O 8.687593 4.390248 -10.614655 0
M  V30 22 O 9.542307 4.795998 -15.700835 0
M  V30 23 O 8.158867 1.390477 -13.185009 0
M  V30 24 C 8.579619 3.786076 -12.907789 0 CFG=1
M  V30 25 C 9.249792 0.954458 -17.871319 0
M  V30 26 C 6.605086 2.877224 -14.261834 0
M  V30 27 N 11.047308 7.590230 -10.510940 0
M  V30 28 O 5.325363 0.900214 -19.809196 0
M  V30 29 C 11.798447 8.297338 -8.492839 0
M  V30 30 N 8.975413 7.287415 -10.385034 0 CHG=1
M  V30 31 C 7.825414 2.577673 -19.348759 0 CFG=2
M  V30 32 O 11.251992 6.750034 -5.649154 0
M  V30 33 O 9.915736 6.895953 -7.500416 0
M  V30 34 C 10.006151 7.116051 -6.135827 0
M  V30 35 C 6.156507 -0.971592 -21.052302 0
M  V30 36 C 8.110731 1.107514 -18.867869 0
M  V30 37 C 8.041062 2.653545 -13.798742 0 CFG=2
M  V30 38 C 11.306630 6.769160 -4.233395 0
M  V30 39 N 7.451095 0.084240 -19.293905 0
M  V30 40 C 12.310963 7.965366 -9.978249 0
M  V30 41 C 7.839647 5.132026 -12.874213 0 CFG=1
M  V30 42 H 6.492200 7.047857 -11.516851 0
M  V30 43 H 6.975504 8.361268 -12.574933 0
M  V30 44 H 8.575409 6.967190 -13.632005 0
M  V30 45 H 5.917691 2.895397 -18.385056 0
M  V30 46 H 11.349301 7.087446 -12.589366 0
M  V30 47 H 9.619576 8.882942 -8.144695 0
M  V30 48 H 5.375408 4.420306 -14.956631 0
M  V30 49 H 5.391614 7.793064 -14.887851 0
M  V30 50 H 4.986730 6.519279 -13.229052 0
M  V30 51 H 8.172354 2.021081 -21.452978 0
M  V30 52 H 6.534719 2.620369 -21.153380 0
M  V30 53 H 7.868870 3.730830 -21.209445 0
M  V30 54 H 6.868762 3.674648 -11.428725 0
M  V30 55 H 6.362830 5.282372 -16.639030 0
M  V30 56 H 8.388383 3.365492 -17.080860 0
M  V30 57 H 8.288797 6.390227 -15.585098 0
M  V30 58 H 8.623531 5.820043 -17.182723 0
M  V30 59 H 9.568454 4.443668 -10.950406 0
M  V30 60 H 9.515939 4.745748 -14.758691 0
M  V30 61 H 8.984516 1.335159 -12.720880 0
M  V30 62 H 9.665684 3.814759 -12.824710 0
M  V30 63 H 5.917988 2.697622 -13.433718 0
M  V30 64 H 6.342723 2.135377 -15.014485 0
M  V30 65 H 11.974291 9.350838 -8.280550 0
M  V30 66 H 12.384500 7.741851 -7.760995 0
M  V30 67 H 8.786652 3.089135 -19.284350 0
M  V30 68 H 9.764585 8.147367 -5.867734 0
M  V30 69 H 9.257356 6.460940 -5.689526 0
M  V30 70 H 5.928991 -1.933678 -20.594019 0
M  V30 71 H 5.375436 -0.742022 -21.773376 0
M  V30 72 H 7.097001 -1.060196 -21.598291 0
M  V30 73 H 8.575406 2.609280 -14.731245 0
M  V30 74 H 12.175511 6.222842 -3.885998 0
M  V30 75 H 11.375449 7.792202 -3.865909 0
M  V30 76 H 10.442264 6.282935 -3.779328 0
M  V30 77 H 12.975399 7.119852 -9.985004 0
M  V30 78 H 12.717751 8.823712 -10.514302 0
M  V30 79 H 8.013053 7.291508 -9.982819 0
M  V30 80 H 7.033009 2.639625 -16.562116 0
M  V30 END ATOM
M  V30 BEGIN BOND
M  V30 1 1 2 1
M  V30 2 1 6 3
M  V30 3 1 9 1
M  V30 4 1 9 8
M  V30 5 1 12 2
M  V30 6 2 12 5
M  V30 7 1 15 4
M  V30 8 1 16 7
M  V30 9 1 17 4
M  V30 10 1 17 16
M  V30 11 1 18 7
M  V30 12 1 18 9
M  V30 13 1 20 16
M  V30 14 1 21 13
M  V30 15 1 22 20
M  V30 16 1 24 13
M  V30 17 2 25 11
M  V30 18 1 25 14
M  V30 19 1 26 7
M  V30 20 1 27 3
M  V30 21 1 27 5
M  V30 22 2 28 19
M  V30 23 1 29 6
M  V30 24 2 30 3
M  V30 25 1 30 12
M  V30 26 1 31 4
M  V30 27 1 31 10
M  V30 28 1 33 6
M  V30 29 1 34 32
M  V30 30 1 34 33
M  V30 31 1 35 19
M  V30 32 1 36 25
M  V30 33 1 36 31
M  V30 34 1 37 23
M  V30 35 1 37 24
M  V30 36 1 37 26
M  V30 37 1 38 32
M  V30 38 1 39 19
M  V30 39 2 39 36
M  V30 40 1 40 27
M  V30 41 1 40 29
M  V30 42 1 41 2
M  V30 43 1 41 13
M  V30 44 1 41 18 CFG=3
M  V30 45 1 41 24
M  V30 46 1 42 1
M  V30 47 1 43 1
M  V30 48 1 2 44 CFG=3
M  V30 49 1 4 45 CFG=1
M  V30 50 1 46 5
M  V30 51 1 6 47 CFG=1
M  V30 52 1 7 48 CFG=3
M  V30 53 1 49 8
M  V30 54 1 9 50 CFG=1
M  V30 55 1 51 10
M  V30 56 1 52 10
M  V30 57 1 53 10
M  V30 58 1 13 54 CFG=1
M  V30 59 1 16 55 CFG=3
M  V30 60 1 56 17
M  V30 61 1 57 20
M  V30 62 1 58 20
M  V30 63 1 59 21
M  V30 64 1 60 22
M  V30 65 1 61 23
M  V30 66 1 24 62 CFG=1
M  V30 67 1 63 26
M  V30 68 1 64 26
M  V30 69 1 65 29
M  V30 70 1 66 29
M  V30 71 1 31 67 CFG=3
M  V30 72 1 68 34
M  V30 73 1 69 34
M  V30 74 1 70 35
M  V30 75 1 71 35
M  V30 76 1 72 35
M  V30 77 1 37 73 CFG=3
M  V30 78 1 74 38
M  V30 79 1 75 38
M  V30 80 1 76 38
M  V30 81 1 77 40
M  V30 82 1 78 40
M  V30 83 1 79 30
M  V30 84 1 80 17
M  V30 END BOND
M  V30 END CTAB
M  END
>  <i_epik_Tot_Q>  (1) 
0

>  <i_epik_Tot_abs_Q>  (1) 
4

>  <i_i_glide_confnum>  (1) 
3383

>  <i_i_glide_lignum>  (1) 
170

>  <i_i_glide_posenum>  (1) 
15

>  <i_i_glide_rotatable_bonds>  (1) 
16

>  <i_lp_mmshare_version>  (1) 
72125

>  <i_m_source_file_index>  (1) 
91

>  <i_f3d_flags>  (1) 
0

>  <num_sample>  (1) 
100

>  <b_lp_Chiralities_Consistent>  (1) 
1

>  <r_epik_Charging_Adjusted_Penalty>  (1) 
1.4758035429533554

>  <r_epik_Ionization_Penalty>  (1) 
0.33648449588267881

>  <r_epik_Ionization_Penalty_Charging>  (1) 
0.24231300703988756

>  <r_epik_Ionization_Penalty_Neutral>  (1) 
0.094171488842791265

>  <r_epik_State_Penalty>  (1) 
1.2334905359134678

>  <r_glide_ring_energy>  (1) 
0

>  <r_i_docking_score>  (1) 
-3.8203344980129765

>  <r_i_glide_ecoul>  (1) 
-10.224910658634524

>  <r_i_glide_eff_state_penalty>  (1) 
1.2334905359134678

>  <r_i_glide_einternal>  (1) 
17.397225486521293

>  <r_i_glide_emodel>  (1) 
-42.369370973189355

>  <r_i_glide_emodel_strain>  (1) 
3.6281183687017631

>  <r_i_glide_energy>  (1) 
-40.415208113359313

>  <r_i_glide_erotb>  (1) 
0.57888693115673628

>  <r_i_glide_esite>  (1) 
-0.18373804218492074

>  <r_i_glide_evdw>  (1) 
-30.190297454724792

>  <r_i_glide_gscore>  (1) 
-5.0538250339264446

>  <r_i_glide_gscore_strain>  (1) 
0

>  <r_i_glide_hbond>  (1) 
-0.2358065601322297

>  <r_i_glide_ligand_efficiency>  (1) 
-0.093178890195438457

>  <r_i_glide_ligand_efficiency_ln>  (1) 
-0.81049667724378804

>  <r_i_glide_ligand_efficiency_sa>  (1) 
-0.32130105561164024

>  <r_i_glide_lipo>  (1) 
-1.4587991646335665

>  <r_i_glide_metal>  (1) 
-0

>  <r_i_glide_rewards>  (1) 
-0.71111672660104552

>  <r_lp_Energy>  (1) 
63.663981999999997

>  <s_epik_Chemistry_Notes>  (1) 
This compound has an imine and may undergo hydrolysis. This compound contains an acetal/aminal-like group ( X-CH(R)-Y where X, Y are N, S, or O) that may be acid/base labile, releasing an aldehyde.

>  <s_epik_cmdline>  (1) 
J2VwaWtfcHl0aG9uJywgJy1waHQnLCAnMS4wJywgJy1waCcsICc3LjQnLCAnLXRuJywgJzgnLCAnLW1hJywgJzUwMCcsICctaW1hZScsICc8aW5maWxlLm1hZT4nLCAnLW9tYWUnLCAnPG91dGZpbGUubWFlPic=

>  <s_epik_input>  (1) 
W0NIM11PW0NIMl1PW0NASF0xW0NIMl1bQ0gyXW4oYzEyKVtjSF1jKG4yKVtDQEBIXTNbQ0gyXVtDQEBIXShbT0hdKU4oW0NAQF0zNDUpW0NASF0oW0NIMl1bQ0BIXShbT0hdKVtDQEBIXTVbQ0BIXTRbT0hdKVtDQEBIXShbQ0gyXVtPSF0pW05IXVtDQEBIXShbT0hdKVtDQEhdKFtDSDNdKUMoXEMoPU8pW09IXSk9Ti9DKD1PKVtDSDNd

>  <s_glide_docking_method>  (1) 
confgen

>  <s_i_glide_gridfile>  (1) 
gpcr_drd2_6luq_protein_autoprepared_prepared

>  <s_lp_Force_Field>  (1) 
S-OPLS

>  <s_lp_Variant>  (1) 
DiffSBDD_90-5

>  <s_m_source_file>  (1) 
generated_generic_title2_ligand_DiffSBDD_2026-06-23_prepared.sdf

>  <GenAI_Model>  (1) 
DiffSBDD

>  <Protein>  (1) 
generic_title2

$$$$
DiffSBDD_73
     RDKit          3D

  0  0  0  0  0  0  0  0  0  0999 V3000
M  V30 BEGIN CTAB
M  V30 COUNTS 73 79 0 0 1
M  V30 BEGIN ATOM
M  V30 1 O 9.374744 3.984985 -11.928968 0
M  V30 2 C 11.701296 6.867580 -6.735915 0
M  V30 3 C 6.914392 4.007969 -13.767065 0
M  V30 4 C 8.151464 4.573679 -11.542894 0 CFG=2
M  V30 5 O 6.179004 5.724742 -12.332574 0
M  V30 6 C 8.030103 3.475324 -14.683573 0
M  V30 7 C 9.158807 8.360471 -6.708629 0
M  V30 8 C 9.532718 4.120731 -19.584637 0 CFG=2
M  V30 9 O 7.410873 3.144778 -18.997545 0
M  V30 10 C 7.369356 5.102717 -12.777501 0 CFG=2
M  V30 11 C 7.250956 4.645713 -21.707212 0
M  V30 12 C 11.761691 8.353852 -6.972645 0 CFG=1
M  V30 13 F 9.354326 2.076206 -18.442969 0
M  V30 14 C 9.124980 6.892824 -7.106059 0 CFG=1
M  V30 15 F 5.012648 3.334908 -20.383225 0
M  V30 16 C 9.753475 7.454351 -9.513194 0 CFG=1
M  V30 17 C 7.243153 2.488489 -20.255793 0 CFG=2
M  V30 18 C 8.763637 3.268406 -18.553746 0 CFG=1
M  V30 19 C 11.105206 8.154790 -9.491318 0
M  V30 20 C 8.776870 3.914039 -17.176377 0 CFG=1
M  V30 21 C 7.944910 3.310771 -21.373648 0 CFG=1
M  V30 22 C 7.759157 4.974869 -16.807910 0
M  V30 23 F 5.525732 1.642970 -21.639333 0
M  V30 24 C 11.319463 9.023003 -8.254987 0 CFG=1
M  V30 25 C 9.030068 5.151355 -9.136137 0
M  V30 26 F 7.952346 2.591371 -22.496005 0
M  V30 27 C 5.736108 2.216726 -20.456575 0
M  V30 28 C 9.325003 6.825431 -10.852191 0 CFG=1
M  V30 29 C 8.426665 5.637857 -10.454514 0 CFG=1
M  V30 30 C 7.700200 3.617290 -16.153929 0 CFG=2
M  V30 31 C 9.621501 6.378775 -8.455610 0 CFG=2
M  V30 32 O 8.575558 7.773538 -11.585149 0
M  V30 33 F 5.313067 1.379804 -19.508970 0
M  V30 34 C 9.421379 3.521188 -20.991167 0
M  V30 35 F 10.815545 4.244068 -19.239984 0
M  V30 36 C 10.425027 6.180864 -7.175647 0 CFG=1
M  V30 37 C 10.472564 9.093097 -6.967173 0 CFG=1
M  V30 38 H 9.192599 3.173090 -12.377142 0
M  V30 39 H 12.561461 6.390743 -7.185045 0
M  V30 40 H 11.775447 6.705311 -5.659845 0
M  V30 41 H 6.453002 3.182386 -13.224066 0
M  V30 42 H 6.118512 4.414401 -14.394111 0
M  V30 43 H 7.535140 3.807027 -11.087773 0
M  V30 44 H 6.414609 6.412743 -11.725495 0
M  V30 45 H 8.969185 3.996608 -14.494281 0
M  V30 46 H 8.198694 2.420094 -14.468875 0
M  V30 47 H 8.338169 8.894109 -7.185433 0
M  V30 48 H 8.978188 8.390405 -5.639819 0
M  V30 49 H 9.135079 5.135694 -19.587107 0
M  V30 50 H 7.956327 5.851588 -13.310127 0
M  V30 51 H 7.097505 5.256039 -20.817276 0
M  V30 52 H 7.840909 5.230253 -22.413669 0
M  V30 53 H 6.277916 4.484442 -22.170847 0
M  V30 54 H 12.579451 8.845053 -6.456816 0
M  V30 55 H 8.285997 6.348801 -6.677850 0
M  V30 56 H 9.010242 8.219100 -9.291271 0
M  V30 57 H 7.730234 1.513202 -20.200628 0
M  V30 58 H 11.916595 7.431901 -9.574690 0
M  V30 59 H 11.181431 8.789706 -10.371598 0
M  V30 60 H 9.779793 4.061501 -16.777601 0
M  V30 61 H 6.979104 5.217558 -17.526824 0
M  V30 62 H 8.103260 5.810085 -16.200873 0
M  V30 63 H 11.775469 9.972797 -8.510908 0
M  V30 64 H 8.283467 4.674937 -8.501033 0
M  V30 65 H 9.821773 4.425168 -9.311273 0
M  V30 66 H 10.193434 6.488691 -11.419942 0
M  V30 67 H 7.446041 5.990085 -10.156114 0
M  V30 68 H 6.903460 2.953900 -16.481902 0
M  V30 69 H 7.880262 8.050482 -10.989982 0
M  V30 70 H 9.943072 2.563144 -21.013504 0
M  V30 71 H 9.923648 4.157862 -21.720172 0
M  V30 72 H 10.386229 5.190227 -6.784927 0
M  V30 73 H 10.547614 10.009838 -6.385081 0
M  V30 END ATOM
M  V30 BEGIN BOND
M  V30 1 1 4 1
M  V30 2 1 6 3
M  V30 3 1 10 3
M  V30 4 1 10 4
M  V30 5 1 10 5
M  V30 6 1 12 2
M  V30 7 1 14 7
M  V30 8 1 17 9
M  V30 9 1 18 8
M  V30 10 1 18 9
M  V30 11 1 18 13 CFG=1
M  V30 12 1 19 16
M  V30 13 1 20 18
M  V30 14 1 21 11
M  V30 15 1 21 17
M  V30 16 1 22 20
M  V30 17 1 24 12
M  V30 18 1 24 19
M  V30 19 1 21 26 CFG=3
M  V30 20 1 27 15
M  V30 21 1 27 17
M  V30 22 1 27 23
M  V30 23 1 28 16
M  V30 24 1 29 4
M  V30 25 1 29 25
M  V30 26 1 29 28
M  V30 27 1 30 6
M  V30 28 1 30 20
M  V30 29 1 30 22
M  V30 30 1 31 14
M  V30 31 1 31 16
M  V30 32 1 31 25 CFG=3
M  V30 33 1 32 28
M  V30 34 1 33 27
M  V30 35 1 34 8
M  V30 36 1 34 21
M  V30 37 1 35 8
M  V30 38 1 36 2
M  V30 39 1 36 14
M  V30 40 1 36 31
M  V30 41 1 37 7
M  V30 42 1 37 12
M  V30 43 1 37 24
M  V30 44 1 38 1
M  V30 45 1 39 2
M  V30 46 1 40 2
M  V30 47 1 41 3
M  V30 48 1 42 3
M  V30 49 1 4 43 CFG=1
M  V30 50 1 44 5
M  V30 51 1 45 6
M  V30 52 1 46 6
M  V30 53 1 47 7
M  V30 54 1 48 7
M  V30 55 1 8 49 CFG=3
M  V30 56 1 10 50 CFG=3
M  V30 57 1 51 11
M  V30 58 1 52 11
M  V30 59 1 53 11
M  V30 60 1 12 54 CFG=1
M  V30 61 1 14 55 CFG=1
M  V30 62 1 16 56 CFG=1
M  V30 63 1 17 57 CFG=1
M  V30 64 1 58 19
M  V30 65 1 59 19
M  V30 66 1 20 60 CFG=1
M  V30 67 1 61 22
M  V30 68 1 62 22
M  V30 69 1 24 63 CFG=3
M  V30 70 1 64 25
M  V30 71 1 65 25
M  V30 72 1 28 66 CFG=3
M  V30 73 1 29 67 CFG=1
M  V30 74 1 30 68 CFG=3
M  V30 75 1 69 32
M  V30 76 1 70 34
M  V30 77 1 71 34
M  V30 78 1 36 72 CFG=1
M  V30 79 1 37 73 CFG=1
M  V30 END BOND
M  V30 END CTAB
M  END
>  <i_epik_Tot_Q>  (1) 
0

>  <i_epik_Tot_abs_Q>  (1) 
0

>  <i_i_glide_confnum>  (1) 
65

>  <i_i_glide_lignum>  (1) 
120

>  <i_i_glide_posenum>  (1) 
387

>  <i_i_glide_rotatable_bonds>  (1) 
10

>  <i_lp_mmshare_version>  (1) 
72125

>  <i_m_source_file_index>  (1) 
74

>  <i_f3d_flags>  (1) 
0

>  <num_sample>  (1) 
100

>  <b_lp_Chiralities_Consistent>  (1) 
1

>  <r_epik_Charging_Adjusted_Penalty>  (1) 
0

>  <r_epik_Ionization_Penalty>  (1) 
7.8331544483768561e-07

>  <r_epik_Ionization_Penalty_Charging>  (1) 
0

>  <r_epik_Ionization_Penalty_Neutral>  (1) 
7.8331544483768561e-07

>  <r_epik_State_Penalty>  (1) 
-0

>  <r_glide_ring_energy>  (1) 
0

>  <r_i_docking_score>  (1) 
-3.8139541337198972

>  <r_i_glide_ecoul>  (1) 
-4.434677073667407

>  <r_i_glide_eff_state_penalty>  (1) 
-0

>  <r_i_glide_einternal>  (1) 
12.160210727110099

>  <r_i_glide_emodel>  (1) 
-24.950453081346112

>  <r_i_glide_emodel_strain>  (1) 
0.042057922922779767

>  <r_i_glide_energy>  (1) 
-30.143778846102435

>  <r_i_glide_erotb>  (1) 
0.42742290402324423

>  <r_i_glide_esite>  (1) 
-0.034880022012278737

>  <r_i_glide_evdw>  (1) 
-25.70910177243503

>  <r_i_glide_gscore>  (1) 
-3.8139541337198972

>  <r_i_glide_gscore_strain>  (1) 
0

>  <r_i_glide_hbond>  (1) 
-0.16

>  <r_i_glide_ligand_efficiency>  (1) 
-0.10307984145188911

>  <r_i_glide_ligand_efficiency_ln>  (1) 
-0.82715723983312217

>  <r_i_glide_ligand_efficiency_sa>  (1) 
-0.34348490015018529

>  <r_i_glide_lipo>  (1) 
-1.5981393914604365

>  <r_i_glide_metal>  (1) 
-0

>  <r_i_glide_rewards>  (1) 
-0.49770097459856349

>  <r_lp_Energy>  (1) 
61.599440999999999

>  <r_lp_tautomer_probability>  (1) 
1

>  <s_epik_cmdline>  (1) 
J2VwaWtfcHl0aG9uJywgJy1waHQnLCAnMS4wJywgJy1waCcsICc3LjQnLCAnLXRuJywgJzgnLCAnLW1hJywgJzUwMCcsICctaW1hZScsICc8aW5maWxlLm1hZT4nLCAnLW9tYWUnLCAnPG91dGZpbGUubWFlPic=

>  <s_epik_input>  (1) 
QzEyM1tDQEhdNFtDQEBIXTNbQ0gyXVtDQEhdNVtDQEhdKFtDQEhdNVtDSDJdNClbQ0gyXVtDQEhdMVtDQEhdKFtPSF0pW0NASF0oW0NIMl0yKVtDQEBIXShbT0hdKVtDQEhdKFtPSF0pW0NIMl1bQ0gyXVtDQEhdNltDSDJdW0NAQEhdNltDQF03KEYpW0NAQEhdKEYpW0NIMl1bQ0BdKEYpKFtDSDNdKVtDQEBIXShPNylDKEYpKEYpRg==

>  <s_glide_docking_method>  (1) 
confgen

>  <s_i_glide_gridfile>  (1) 
gpcr_drd2_6luq_protein_autoprepared_prepared

>  <s_lp_Force_Field>  (1) 
S-OPLS

>  <s_lp_Variant>  (1) 
DiffSBDD_73-1

>  <s_m_source_file>  (1) 
generated_generic_title2_ligand_DiffSBDD_2026-06-23_prepared.sdf

>  <GenAI_Model>  (1) 
DiffSBDD

>  <Protein>  (1) 
generic_title2

$$$$
DiffSBDD_26
     RDKit          3D

  0  0  0  0  0  0  0  0  0  0999 V3000
M  V30 BEGIN CTAB
M  V30 COUNTS 56 58 0 0 1
M  V30 BEGIN ATOM
M  V30 1 C 6.900932 7.475651 -14.820623 0
M  V30 2 O 7.794769 1.701973 -14.879586 0
M  V30 3 C 5.896313 6.926027 -17.856592 0 CFG=1
M  V30 4 C 5.746032 4.085909 -10.836731 0
M  V30 5 C 3.463252 7.502589 -17.321469 0
M  V30 6 C 7.438648 5.077782 -14.752886 0
M  V30 7 C 5.684570 5.414503 -12.891871 0 CFG=2
M  V30 8 C 5.895323 5.590297 -10.537129 0
M  V30 9 C 7.136398 7.916802 -12.256109 0
M  V30 10 N 5.375396 6.265684 -11.730393 0 CFG=1 CHG=1
M  V30 11 N 5.775431 2.946026 -13.185210 0
M  V30 12 C 6.910926 6.540802 -18.947555 0
M  V30 13 C 6.775665 1.993113 -12.765820 0
M  V30 14 C 5.662795 7.701078 -11.887559 0
M  V30 15 C 4.462361 7.094260 -18.423510 0
M  V30 16 C 7.505132 7.077127 -13.477032 0 CFG=1
M  V30 17 C 7.142389 6.237790 -15.706750 0 CFG=1
M  V30 18 C 5.348839 4.037502 -12.326929 0 CFG=1
M  V30 19 O 6.691833 5.599878 -19.708640 0
M  V30 20 C 6.002085 5.921709 -16.689544 0
M  V30 21 O 6.659542 -0.009288 -14.019298 0 CHG=-1
M  V30 22 C 7.159762 5.597368 -13.335314 0 CFG=2
M  V30 23 C 4.413824 8.107271 -19.590317 0
M  V30 24 C 7.110128 1.153542 -13.988499 0
M  V30 25 H 7.363860 8.390019 -15.187645 0
M  V30 26 H 5.831819 7.672207 -14.741045 0
M  V30 27 H 6.174176 7.905993 -17.471729 0
M  V30 28 H 4.994600 3.611776 -10.207869 0
M  V30 29 H 6.687305 3.592708 -10.636261 0
M  V30 30 H 3.912275 8.175714 -16.589693 0
M  V30 31 H 3.103284 6.626410 -16.783829 0
M  V30 32 H 2.586089 8.001450 -17.730491 0
M  V30 33 H 6.883721 4.187780 -15.029877 0
M  V30 34 H 8.491818 4.800478 -14.829950 0
M  V30 35 H 5.006053 5.661552 -13.709099 0
M  V30 36 H 5.338264 5.990221 -9.692105 0
M  V30 37 H 6.949969 5.818906 -10.386603 0
M  V30 38 H 7.783445 7.603839 -11.441357 0
M  V30 39 H 7.376589 8.967845 -12.384943 0
M  V30 40 H 6.075695 3.280386 -14.091686 0
M  V30 41 H 7.812050 7.153028 -18.989652 0
M  V30 42 H 7.677620 2.487033 -12.399233 0
M  V30 43 H 6.377273 1.349528 -11.984897 0
M  V30 44 H 4.989077 8.061256 -12.663985 0
M  V30 45 H 5.375386 8.246742 -10.990060 0
M  V30 46 H 4.135390 6.134109 -18.824855 0
M  V30 47 H 8.575341 7.133389 -13.570876 0
M  V30 48 H 8.050456 6.365881 -16.275065 0
M  V30 49 H 4.262124 3.990402 -12.383472 0
M  V30 50 H 5.074629 5.840950 -16.126303 0
M  V30 51 H 6.175476 4.926432 -17.100566 0
M  V30 52 H 7.828332 5.121023 -12.618446 0
M  V30 53 H 4.977057 9.010024 -19.361791 0
M  V30 54 H 3.392057 8.402657 -19.828071 0
M  V30 55 H 4.837744 7.682926 -20.501030 0
M  V30 56 H 4.372369 6.215354 -11.617610 0
M  V30 END ATOM
M  V30 BEGIN BOND
M  V30 1 1 8 4
M  V30 2 1 10 7
M  V30 3 1 10 8
M  V30 4 1 12 3
M  V30 5 1 13 11
M  V30 6 1 14 9
M  V30 7 1 14 10
M  V30 8 1 15 3
M  V30 9 1 15 5
M  V30 10 1 16 1
M  V30 11 1 16 9
M  V30 12 1 17 1
M  V30 13 1 17 6
M  V30 14 1 18 4
M  V30 15 1 18 7
M  V30 16 1 18 11
M  V30 17 2 19 12
M  V30 18 1 20 3
M  V30 19 1 20 17
M  V30 20 1 22 6
M  V30 21 1 22 7
M  V30 22 1 22 16
M  V30 23 1 23 15
M  V30 24 2 24 2
M  V30 25 1 24 13
M  V30 26 1 24 21
M  V30 27 1 25 1
M  V30 28 1 26 1
M  V30 29 1 3 27 CFG=1
M  V30 30 1 28 4
M  V30 31 1 29 4
M  V30 32 1 30 5
M  V30 33 1 31 5
M  V30 34 1 32 5
M  V30 35 1 33 6
M  V30 36 1 34 6
M  V30 37 1 7 35 CFG=3
M  V30 38 1 36 8
M  V30 39 1 37 8
M  V30 40 1 38 9
M  V30 41 1 39 9
M  V30 42 1 40 11
M  V30 43 1 41 12
M  V30 44 1 42 13
M  V30 45 1 43 13
M  V30 46 1 44 14
M  V30 47 1 45 14
M  V30 48 1 46 15
M  V30 49 1 16 47 CFG=3
M  V30 50 1 17 48 CFG=3
M  V30 51 1 18 49 CFG=1
M  V30 52 1 50 20
M  V30 53 1 51 20
M  V30 54 1 22 52 CFG=1
M  V30 55 1 53 23
M  V30 56 1 54 23
M  V30 57 1 55 23
M  V30 58 1 10 56 CFG=1
M  V30 END BOND
M  V30 END CTAB
M  END
>  <i_epik_Tot_Q>  (1) 
0

>  <i_epik_Tot_abs_Q>  (1) 
2

>  <i_i_glide_confnum>  (1) 
8

>  <i_i_glide_lignum>  (1) 
45

>  <i_i_glide_posenum>  (1) 
320

>  <i_i_glide_rotatable_bonds>  (1) 
7

>  <i_lp_mmshare_version>  (1) 
72125

>  <i_m_source_file_index>  (1) 
27

>  <i_f3d_flags>  (1) 
0

>  <num_sample>  (1) 
100

>  <b_lp_Chiralities_Consistent>  (1) 
1

>  <r_epik_Charging_Adjusted_Penalty>  (1) 
0.19178745009715187

>  <r_epik_Ionization_Penalty>  (1) 
0.029917907437945299

>  <r_epik_Ionization_Penalty_Charging>  (1) 
0.0050195782491265998

>  <r_epik_Ionization_Penalty_Neutral>  (1) 
0.024898329188818697

>  <r_epik_State_Penalty>  (1) 
0.18676787184802526

>  <r_glide_ring_energy>  (1) 
0

>  <r_i_docking_score>  (1) 
-3.8104303232784442

>  <r_i_glide_ecoul>  (1) 
-1.3490064746469494

>  <r_i_glide_eff_state_penalty>  (1) 
0.18676787184802526

>  <r_i_glide_einternal>  (1) 
13.09674838455955

>  <r_i_glide_emodel>  (1) 
-14.904666346963475

>  <r_i_glide_emodel_strain>  (1) 
0.8664022070047821

>  <r_i_glide_energy>  (1) 
-16.68521923986831

>  <r_i_glide_erotb>  (1) 
0.66727664270853937

>  <r_i_glide_esite>  (1) 
-0.062145803392483524

>  <r_i_glide_evdw>  (1) 
-15.336212765221362

>  <r_i_glide_gscore>  (1) 
-3.9971981951264697

>  <r_i_glide_gscore_strain>  (1) 
0

>  <r_i_glide_hbond>  (1) 
0

>  <r_i_glide_ligand_efficiency>  (1) 
-0.15876793013660184

>  <r_i_glide_ligand_efficiency_ln>  (1) 
-0.91201082561473712

>  <r_i_glide_ligand_efficiency_sa>  (1) 
-0.45796595803622131

>  <r_i_glide_lipo>  (1) 
-1.6571904272671374

>  <r_i_glide_metal>  (1) 
-0

>  <r_i_glide_rewards>  (1) 
-1.9759769977172779

>  <r_lp_Energy>  (1) 
35.064892999999998

>  <r_lp_tautomer_probability>  (1) 
0.99990000499974985

>  <s_epik_cmdline>  (1) 
J2VwaWtfcHl0aG9uJywgJy1waHQnLCAnMS4wJywgJy1waCcsICc3LjQnLCAnLXRuJywgJzgnLCAnLW1hJywgJzUwMCcsICctaW1hZScsICc8aW5maWxlLm1hZT4nLCAnLW9tYWUnLCAnPG91dGZpbGUubWFlPic=

>  <s_epik_input>  (1) 
W0NIM11bQ0hdKFtDSDNdKVtDQEhdKFtDSF09TylbQ0gyXVtDQEBIXShbQ0gyXTEpW0NIMl1bQ0BIXTJbQ0BASF0xW0NIMl1bQ0gyXU4oW0NAQEhdMjMpW0NIMl1bQ0gyXVtDQEBIXTNbTkhdW0NIMl1DKD1PKVtPSF0=

>  <s_glide_docking_method>  (1) 
confgen

>  <s_i_glide_gridfile>  (1) 
gpcr_drd2_6luq_protein_autoprepared_prepared

>  <s_lp_Force_Field>  (1) 
S-OPLS

>  <s_lp_Variant>  (1) 
DiffSBDD_26-1

>  <s_m_source_file>  (1) 
generated_generic_title2_ligand_DiffSBDD_2026-06-23_prepared.sdf

>  <GenAI_Model>  (1) 
DiffSBDD

>  <Protein>  (1) 
generic_title2

$$$$
DiffSBDD_58
     RDKit          3D

  0  0  0  0  0  0  0  0  0  0999 V3000
M  V30 BEGIN CTAB
M  V30 COUNTS 61 64 0 0 1
M  V30 BEGIN ATOM
M  V30 1 C 13.773991 0.781957 -18.647038 0
M  V30 2 C 10.470393 1.622094 -19.205056 0
M  V30 3 O 13.455733 3.957208 -17.642339 0
M  V30 4 F 13.774316 -0.444975 -18.127159 0
M  V30 5 F 13.489606 0.701769 -19.946979 0
M  V30 6 F 15.003113 1.284037 -18.515084 0
M  V30 7 C 12.751723 1.661902 -17.894869 0 CFG=1
M  V30 8 C 6.070661 5.520065 -12.326373 0
M  V30 9 C 8.086386 4.244389 -12.240365 0
M  V30 10 C 8.972035 6.620437 -11.852835 0
M  V30 11 C 6.927150 4.587869 -13.110267 0 CFG=2
M  V30 12 C 9.272731 3.747305 -17.204459 0 CFG=2
M  V30 13 C 7.775635 7.397628 -12.387820 0
M  V30 14 C 10.573824 3.139973 -19.499657 0 CFG=1
M  V30 15 C 12.823765 3.136167 -18.306693 0
M  V30 16 O 9.984916 7.243584 -11.537885 0
M  V30 17 C 9.657621 4.110881 -18.665764 0 CFG=1
M  V30 18 C 12.350954 4.989237 -20.035649 0
M  V30 19 C 12.075079 3.538122 -19.585030 0 CFG=2
M  V30 20 C 7.398626 5.490744 -17.291972 0
M  V30 21 C 8.176194 4.282406 -15.161515 0 CFG=1
M  V30 22 O 7.270557 5.082750 -14.409494 0
M  V30 23 C 6.527029 6.909919 -12.577112 0
M  V30 24 C 7.662125 2.888772 -15.554999 0
M  V30 25 C 8.274150 2.593574 -16.936278 0
M  V30 26 C 8.969055 5.107106 -11.686159 0
M  V30 27 C 11.297869 1.140142 -17.985766 0
M  V30 28 C 7.783200 5.823517 -18.741370 0
M  V30 29 C 8.596948 4.929637 -16.483599 0 CFG=1
M  V30 30 C 8.429520 4.619650 -19.450821 0
M  V30 31 H 9.427710 1.319487 -19.114375 0
M  V30 32 H 10.838084 1.086138 -20.081092 0
M  V30 33 H 13.037471 1.627131 -16.842532 0
M  V30 34 H 6.034647 5.299279 -11.257490 0
M  V30 35 H 5.047227 5.446619 -12.692567 0
M  V30 36 H 8.221797 3.189762 -12.052436 0
M  V30 37 H 6.363800 3.662977 -13.242075 0
M  V30 38 H 10.198089 3.541773 -16.666186 0
M  V30 39 H 7.947880 8.442240 -12.599011 0
M  V30 40 H 10.221526 3.231244 -20.527919 0
M  V30 41 H 10.252101 5.011744 -18.535127 0
M  V30 42 H 13.384016 5.097423 -20.367633 0
M  V30 43 H 11.710356 5.269891 -20.872130 0
M  V30 44 H 12.196555 5.716638 -19.238267 0
M  V30 45 H 12.501154 2.912621 -20.369384 0
M  V30 46 H 7.004720 6.380534 -16.799897 0
M  V30 47 H 6.575842 4.777180 -17.305914 0
M  V30 48 H 9.093459 4.165352 -14.586358 0
M  V30 49 H 5.767071 7.583932 -12.944302 0
M  V30 50 H 7.954231 2.143707 -14.814266 0
M  V30 51 H 6.575428 2.874762 -15.618026 0
M  V30 52 H 8.714738 1.600970 -16.947555 0
M  V30 53 H 7.482557 2.583649 -17.684743 0
M  V30 54 H 9.775424 4.695278 -11.099470 0
M  V30 55 H 10.807600 1.438162 -17.068328 0
M  V30 56 H 11.291626 0.050263 -17.958498 0
M  V30 57 H 8.476570 6.665756 -18.747813 0
M  V30 58 H 6.901524 6.150720 -19.293140 0
M  V30 59 H 9.316497 5.729618 -16.303882 0
M  V30 60 H 8.727479 4.933817 -20.451846 0
M  V30 61 H 7.702029 3.819708 -19.587492 0
M  V30 END ATOM
M  V30 BEGIN BOND
M  V30 1 1 4 1
M  V30 2 1 5 1
M  V30 3 1 6 1
M  V30 4 1 7 1
M  V30 5 1 11 8
M  V30 6 1 11 9
M  V30 7 1 13 10
M  V30 8 1 14 2
M  V30 9 2 15 3
M  V30 10 1 15 7
M  V30 11 2 16 10
M  V30 12 1 17 12
M  V30 13 1 17 14
M  V30 14 1 19 14
M  V30 15 1 19 15
M  V30 16 1 19 18
M  V30 17 1 22 11
M  V30 18 1 22 21
M  V30 19 1 23 8
M  V30 20 2 23 13
M  V30 21 1 24 21
M  V30 22 1 25 12
M  V30 23 1 25 24
M  V30 24 2 26 9
M  V30 25 1 26 10
M  V30 26 1 27 2
M  V30 27 1 27 7
M  V30 28 1 28 20
M  V30 29 1 29 12
M  V30 30 1 29 20
M  V30 31 1 29 21
M  V30 32 1 30 17
M  V30 33 1 30 28
M  V30 34 1 31 2
M  V30 35 1 32 2
M  V30 36 1 7 33 CFG=1
M  V30 37 1 34 8
M  V30 38 1 35 8
M  V30 39 1 36 9
M  V30 40 1 11 37 CFG=3
M  V30 41 1 12 38 CFG=1
M  V30 42 1 39 13
M  V30 43 1 14 40 CFG=3
M  V30 44 1 17 41 CFG=1
M  V30 45 1 42 18
M  V30 46 1 43 18
M  V30 47 1 44 18
M  V30 48 1 19 45 CFG=3
M  V30 49 1 46 20
M  V30 50 1 47 20
M  V30 51 1 21 48 CFG=1
M  V30 52 1 49 23
M  V30 53 1 50 24
M  V30 54 1 51 24
M  V30 55 1 52 25
M  V30 56 1 53 25
M  V30 57 1 54 26
M  V30 58 1 55 27
M  V30 59 1 56 27
M  V30 60 1 57 28
M  V30 61 1 58 28
M  V30 62 1 29 59 CFG=1
M  V30 63 1 60 30
M  V30 64 1 61 30
M  V30 END BOND
M  V30 END CTAB
M  END
>  <i_epik_Tot_Q>  (1) 
0

>  <i_epik_Tot_abs_Q>  (1) 
0

>  <i_i_glide_confnum>  (1) 
4

>  <i_i_glide_lignum>  (1) 
92

>  <i_i_glide_posenum>  (1) 
112

>  <i_i_glide_rotatable_bonds>  (1) 
4

>  <i_lp_mmshare_version>  (1) 
72125

>  <i_m_source_file_index>  (1) 
59

>  <i_f3d_flags>  (1) 
0

>  <num_sample>  (1) 
100

>  <b_lp_Chiralities_Consistent>  (1) 
1

>  <r_epik_Charging_Adjusted_Penalty>  (1) 
0

>  <r_epik_Ionization_Penalty>  (1) 
2.3521434305966632e-11

>  <r_epik_Ionization_Penalty_Charging>  (1) 
0

>  <r_epik_Ionization_Penalty_Neutral>  (1) 
2.3521434305966632e-11

>  <r_epik_State_Penalty>  (1) 
-0

>  <r_glide_ring_energy>  (1) 
2.0493742895280942

>  <r_i_docking_score>  (1) 
-3.8050104192023815

>  <r_i_glide_ecoul>  (1) 
-1.4993595910238662

>  <r_i_glide_eff_state_penalty>  (1) 
-0

>  <r_i_glide_einternal>  (1) 
18.476924320351934

>  <r_i_glide_emodel>  (1) 
-29.833768391239179

>  <r_i_glide_emodel_strain>  (1) 
0.046993232795969675

>  <r_i_glide_energy>  (1) 
-32.681848865307096

>  <r_i_glide_erotb>  (1) 
0.33010280432778499

>  <r_i_glide_esite>  (1) 
-0.030444416921502529

>  <r_i_glide_evdw>  (1) 
-31.182489274283228

>  <r_i_glide_gscore>  (1) 
-3.8050104192023815

>  <r_i_glide_gscore_strain>  (1) 
0

>  <r_i_glide_hbond>  (1) 
0

>  <r_i_glide_ligand_efficiency>  (1) 
-0.12683368064007938

>  <r_i_glide_ligand_efficiency_ln>  (1) 
-0.86453982615189628

>  <r_i_glide_ligand_efficiency_sa>  (1) 
-0.39410173533462534

>  <r_i_glide_lipo>  (1) 
-1.2912584768597599

>  <r_i_glide_metal>  (1) 
-0

>  <r_i_glide_rewards>  (1) 
-1.0293819273811629

>  <r_lp_Energy>  (1) 
29.975919999999999

>  <r_lp_tautomer_probability>  (1) 
1

>  <s_epik_cmdline>  (1) 
J2VwaWtfcHl0aG9uJywgJy1waHQnLCAnMS4wJywgJy1waCcsICc3LjQnLCAnLXRuJywgJzgnLCAnLW1hJywgJzUwMCcsICctaW1hZScsICc8aW5maWxlLm1hZT4nLCAnLW9tYWUnLCAnPG91dGZpbGUubWFlPic=

>  <s_epik_input>  (1) 
RkMoRikoRilbQ0BIXTFDKD1PKVtDQEhdKFtDSDNdKVtDQEBIXShbQ0gyXVtDSDJdMSlbQ0BIXTJbQ0gyXVtDSDJdW0NIMl1bQ0BIXShbQ0BIXTIzKVtDQEhdKFtDSDJdW0NIMl0zKU9bQ0BASF0oW0NIXT1bQ0hdNClbQ0gyXVtDSF09W0NIXUM0PU8=

>  <s_glide_docking_method>  (1) 
confgen

>  <s_i_glide_gridfile>  (1) 
gpcr_drd2_6luq_protein_autoprepared_prepared

>  <s_lp_Force_Field>  (1) 
S-OPLS

>  <s_lp_Variant>  (1) 
DiffSBDD_58-1

>  <s_m_source_file>  (1) 
generated_generic_title2_ligand_DiffSBDD_2026-06-23_prepared.sdf

>  <GenAI_Model>  (1) 
DiffSBDD

>  <Protein>  (1) 
generic_title2

$$$$
DiffSBDD_78
     RDKit          3D

  0  0  0  0  0  0  0  0  0  0999 V3000
M  V30 BEGIN CTAB
M  V30 COUNTS 80 84 0 0 1
M  V30 BEGIN ATOM
M  V30 1 C 10.202168 6.790855 -7.092917 0 CFG=2
M  V30 2 C 8.706111 6.626410 -6.824232 0
M  V30 3 C 5.899944 6.061913 -14.058989 0 CFG=1
M  V30 4 C 8.214903 5.429552 -15.427161 0 CFG=2
M  V30 5 C 10.926495 7.202968 -5.797864 0
M  V30 6 N 9.841765 4.109769 -16.819143 0
M  V30 7 C 7.266692 4.273450 -15.042448 0 CFG=1
M  V30 8 C 7.718733 4.963462 -12.620255 0 CFG=1
M  V30 9 N 10.442100 7.879079 -8.084074 0 CFG=1 CHG=1
M  V30 10 C 11.535663 8.703785 -7.528076 0
M  V30 11 N 9.114661 4.947060 -12.070323 0 CFG=2 CHG=1
M  V30 12 C 7.074819 7.543578 -12.457723 0
M  V30 13 C 9.684619 5.067027 -15.719983 0
M  V30 14 C 8.897987 5.190635 -18.874360 0
M  V30 15 O 8.175410 6.407373 -14.372375 0
M  V30 16 C 9.226401 3.841568 -11.108881 0
M  V30 17 C 9.297464 5.753077 -20.249459 0 CFG=1
M  V30 18 C 4.975390 4.914532 -13.793883 0
M  V30 19 C 7.217139 6.266130 -13.327952 0 CFG=2
M  V30 20 F 10.082476 6.814856 -20.054424 0
M  V30 21 C 11.338797 8.653396 -6.020061 0
M  V30 22 C 5.681689 7.784597 -11.845622 0
M  V30 23 O 10.759551 3.693975 -18.916156 0
M  V30 24 C 7.637615 3.768713 -13.637443 0
M  V30 25 C 10.096662 4.696710 -21.030107 0 CFG=1
M  V30 26 C 9.653484 6.490300 -10.072628 0
M  V30 27 C 10.154508 4.677126 -18.133891 0 CFG=2
M  V30 28 C 10.666378 7.506741 -9.511325 0
M  V30 29 C 9.819877 6.178834 -11.594637 0
M  V30 30 C 8.077086 6.255545 -21.035514 0
M  V30 31 C 11.251341 4.153062 -20.172914 0
M  V30 32 C 5.901397 4.908318 -14.997306 0 CFG=1
M  V30 33 F 9.309946 3.681100 -21.392490 0
M  V30 34 H 10.630369 5.845889 -7.431032 0
M  V30 35 H 8.523868 5.965036 -5.985027 0
M  V30 36 H 8.251170 7.582613 -6.561702 0
M  V30 37 H 8.175418 6.212674 -7.680390 0
M  V30 38 H 5.477070 6.964920 -14.496600 0
M  V30 39 H 7.799829 5.928855 -16.299080 0
M  V30 40 H 11.798620 6.567713 -5.659154 0
M  V30 41 H 10.315690 7.085120 -4.901547 0
M  V30 42 H 10.606639 3.482611 -16.586854 0
M  V30 43 H 7.274131 3.469080 -15.778844 0
M  V30 44 H 7.027642 4.787692 -11.794587 0
M  V30 45 H 12.500262 8.256604 -7.774922 0
M  V30 46 H 11.544952 9.711899 -7.925088 0
M  V30 47 H 7.745525 7.572703 -11.617256 0
M  V30 48 H 7.375407 8.390224 -13.068024 0
M  V30 49 H 10.137487 4.659335 -14.818822 0
M  V30 50 H 10.246302 5.976829 -15.935388 0
M  V30 51 H 8.185129 4.370609 -18.973188 0
M  V30 52 H 8.426804 5.982447 -18.298729 0
M  V30 53 H 8.461708 3.990221 -10.345817 0
M  V30 54 H 9.110968 2.864790 -11.580079 0
M  V30 55 H 10.175410 3.872693 -10.601385 0
M  V30 56 H 5.153714 4.258825 -12.947419 0
M  V30 57 H 3.930119 5.097186 -13.985025 0
M  V30 58 H 12.226046 8.939700 -5.455311 0
M  V30 59 H 10.527757 9.321666 -5.726374 0
M  V30 60 H 5.712252 8.648241 -11.185037 0
M  V30 61 H 4.915578 7.990265 -12.589792 0
M  V30 62 H 5.359336 6.931527 -11.247472 0
M  V30 63 H 6.927745 3.013118 -13.298355 0
M  V30 64 H 8.576486 3.227196 -13.725195 0
M  V30 65 H 10.485404 5.119305 -21.957349 0
M  V30 66 H 8.632534 6.790215 -9.868267 0
M  V30 67 H 9.785678 5.601261 -9.467201 0
M  V30 68 H 10.886386 5.478269 -18.009758 0
M  V30 69 H 11.673819 7.103826 -9.616423 0
M  V30 70 H 10.636044 8.419146 -10.108339 0
M  V30 71 H 10.872545 5.990236 -11.792591 0
M  V30 72 H 9.641792 7.040013 -12.233466 0
M  V30 73 H 7.370613 5.448892 -21.234839 0
M  V30 74 H 7.545980 7.030646 -20.482790 0
M  V30 75 H 8.374712 6.678978 -21.994946 0
M  V30 76 H 12.008638 4.921967 -20.012588 0
M  V30 77 H 11.746267 3.326878 -20.685052 0
M  V30 78 H 5.504822 5.190243 -15.970101 0
M  V30 79 H 9.599745 8.439103 -8.059236 0
M  V30 80 H 9.673916 4.678954 -12.869042 0
M  V30 END ATOM
M  V30 BEGIN BOND
M  V30 1 1 2 1
M  V30 2 1 5 1
M  V30 3 1 7 4
M  V30 4 1 9 1
M  V30 5 1 10 9
M  V30 6 1 11 8
M  V30 7 1 13 4
M  V30 8 1 13 6
M  V30 9 1 15 4
M  V30 10 1 16 11
M  V30 11 1 17 14
M  V30 12 1 18 3
M  V30 13 1 19 3
M  V30 14 1 19 8
M  V30 15 1 19 12 CFG=1
M  V30 16 1 19 15
M  V30 17 1 17 20 CFG=1
M  V30 18 1 21 5
M  V30 19 1 21 10
M  V30 20 1 22 12
M  V30 21 1 24 7
M  V30 22 1 24 8
M  V30 23 1 25 17
M  V30 24 1 27 6
M  V30 25 1 27 14
M  V30 26 1 27 23
M  V30 27 1 28 9
M  V30 28 1 28 26
M  V30 29 1 29 11
M  V30 30 1 29 26
M  V30 31 1 30 17
M  V30 32 1 31 23
M  V30 33 1 31 25
M  V30 34 1 32 3
M  V30 35 1 32 7
M  V30 36 1 32 18
M  V30 37 1 33 25
M  V30 38 1 1 34 CFG=3
M  V30 39 1 35 2
M  V30 40 1 36 2
M  V30 41 1 37 2
M  V30 42 1 3 38 CFG=3
M  V30 43 1 4 39 CFG=3
M  V30 44 1 40 5
M  V30 45 1 41 5
M  V30 46 1 42 6
M  V30 47 1 7 43 CFG=3
M  V30 48 1 8 44 CFG=1
M  V30 49 1 45 10
M  V30 50 1 46 10
M  V30 51 1 47 12
M  V30 52 1 48 12
M  V30 53 1 49 13
M  V30 54 1 50 13
M  V30 55 1 51 14
M  V30 56 1 52 14
M  V30 57 1 53 16
M  V30 58 1 54 16
M  V30 59 1 55 16
M  V30 60 1 56 18
M  V30 61 1 57 18
M  V30 62 1 58 21
M  V30 63 1 59 21
M  V30 64 1 60 22
M  V30 65 1 61 22
M  V30 66 1 62 22
M  V30 67 1 63 24
M  V30 68 1 64 24
M  V30 69 1 25 65 CFG=3
M  V30 70 1 66 26
M  V30 71 1 67 26
M  V30 72 1 27 68 CFG=1
M  V30 73 1 69 28
M  V30 74 1 70 28
M  V30 75 1 71 29
M  V30 76 1 72 29
M  V30 77 1 73 30
M  V30 78 1 74 30
M  V30 79 1 75 30
M  V30 80 1 76 31
M  V30 81 1 77 31
M  V30 82 1 32 78 CFG=3
M  V30 83 1 9 79 CFG=3
M  V30 84 1 11 80 CFG=3
M  V30 END BOND
M  V30 END CTAB
M  END
>  <i_epik_Tot_Q>  (1) 
2

>  <i_epik_Tot_abs_Q>  (1) 
2

>  <i_i_glide_confnum>  (1) 
1058

>  <i_i_glide_lignum>  (1) 
130

>  <i_i_glide_posenum>  (1) 
267

>  <i_i_glide_rotatable_bonds>  (1) 
9

>  <i_lp_mmshare_version>  (1) 
72125

>  <i_m_source_file_index>  (1) 
79

>  <i_f3d_flags>  (1) 
0

>  <num_sample>  (1) 
100

>  <b_lp_Chiralities_Consistent>  (1) 
1

>  <r_epik_Charging_Adjusted_Penalty>  (1) 
0.22182564166484353

>  <r_epik_Ionization_Penalty>  (1) 
0.22182564166592098

>  <r_epik_Ionization_Penalty_Charging>  (1) 
0.060182310347739972

>  <r_epik_Ionization_Penalty_Neutral>  (1) 
0.16164333131818101

>  <r_epik_State_Penalty>  (1) 
0.16164333131710357

>  <r_glide_ring_energy>  (1) 
0

>  <r_i_docking_score>  (1) 
-3.7975514780662771

>  <r_i_glide_ecoul>  (1) 
-4.5346016246984044

>  <r_i_glide_eff_state_penalty>  (1) 
0.16164333131710357

>  <r_i_glide_einternal>  (1) 
11.486010495328555

>  <r_i_glide_emodel>  (1) 
-25.112402243840194

>  <r_i_glide_emodel_strain>  (1) 
3.7567243758134055

>  <r_i_glide_energy>  (1) 
-20.941216753549515

>  <r_i_glide_erotb>  (1) 
0.726867567680611

>  <r_i_glide_esite>  (1) 
-0.01907716168463746

>  <r_i_glide_evdw>  (1) 
-16.406615128851112

>  <r_i_glide_gscore>  (1) 
-3.9591948093833809

>  <r_i_glide_gscore_strain>  (1) 
0

>  <r_i_glide_hbond>  (1) 
0

>  <r_i_glide_ligand_efficiency>  (1) 
-0.11507731751715991

>  <r_i_glide_ligand_efficiency_ln>  (1) 
-0.84455578605270998

>  <r_i_glide_ligand_efficiency_sa>  (1) 
-0.36911444654012054

>  <r_i_glide_lipo>  (1) 
-1.9171214854135239

>  <r_i_glide_metal>  (1) 
-0

>  <r_i_glide_rewards>  (1) 
-1.2493427298185147

>  <r_lp_Energy>  (1) 
68.58846299999999

>  <s_epik_Chemistry_Notes>  (1) 
This compound contains an acetal/aminal-like group ( X-CH(R)-Y where X, Y are N, S, or O) that may be acid/base labile, releasing an aldehyde.

>  <s_epik_cmdline>  (1) 
J2VwaWtfcHl0aG9uJywgJy1waHQnLCAnMS4wJywgJy1waCcsICc3LjQnLCAnLXRuJywgJzgnLCAnLW1hJywgJzUwMCcsICctaW1hZScsICc8aW5maWxlLm1hZT4nLCAnLW9tYWUnLCAnPG91dGZpbGUubWFlPic=

>  <s_epik_input>  (1) 
W0NIM11bQ0BASF0xW0NIMl1bQ0gyXVtDSDJdTjFbQ0gyXVtDSDJdW0NIMl1OKFtDSDNdKVtDQEBIXTJbQ0gyXVtDQEBIXShbQ0BASF0oW0NIMl0zKVtDQEBIXTNbQ0BAXTI0W0NIMl1bQ0gzXSlbQ0BASF0oTzQpW0NIMl1bTkhdW0NASF0oW0NIMl1bQ0BdNShGKVtDSDNdKU9bQ0gyXVtDQEhdNUY=

>  <s_glide_docking_method>  (1) 
confgen

>  <s_i_glide_gridfile>  (1) 
gpcr_drd2_6luq_protein_autoprepared_prepared

>  <s_lp_Force_Field>  (1) 
S-OPLS

>  <s_lp_Variant>  (1) 
DiffSBDD_78-2

>  <s_m_source_file>  (1) 
generated_generic_title2_ligand_DiffSBDD_2026-06-23_prepared.sdf

>  <GenAI_Model>  (1) 
DiffSBDD

>  <Protein>  (1) 
generic_title2

$$$$
DiffSBDD_86
     RDKit          3D

  0  0  0  0  0  0  0  0  0  0999 V3000
M  V30 BEGIN CTAB
M  V30 COUNTS 113 116 0 0 1
M  V30 BEGIN ATOM
M  V30 1 C 15.618294 3.766831 -16.927768 0
M  V30 2 C 15.874391 5.268331 -16.857900 0 CFG=1
M  V30 3 C 8.617882 5.343928 -7.687930 0
M  V30 4 C 4.981639 7.479764 -19.439032 0
M  V30 5 C 9.321318 4.066086 -19.703993 0 CFG=2
M  V30 6 C 7.646017 3.788449 -13.213399 0
M  V30 7 O 11.182664 2.742624 -19.058024 0
M  V30 8 C 9.050270 1.852283 -18.412751 0 CFG=2
M  V30 9 O 12.427187 0.084640 -18.558292 0
M  V30 10 C 10.482092 1.519730 -18.887688 0 CFG=2
M  V30 11 C 8.613302 5.006560 -20.699822 0
M  V30 12 O 17.219725 5.467759 -16.466590 0
M  V30 13 N 8.606157 4.790407 -10.074742 0
M  V30 14 C 11.379699 5.726357 -16.699573 0
M  V30 15 C 13.606408 3.812919 -18.498652 0 CFG=1
M  V30 16 C 7.203409 3.791975 -15.591010 0 CFG=2
M  V30 17 O 14.839881 4.835604 -20.762151 0
M  V30 18 C 3.373800 6.863178 -17.433921 0
M  V30 19 C 10.789181 3.664762 -20.075572 0 CFG=1
M  V30 20 C 10.874653 2.955804 -21.467419 0
M  V30 21 C 12.664729 4.989341 -18.826227 0 CFG=2
M  V30 22 O 11.374673 6.790349 -13.184994 0
M  V30 23 O 6.466532 3.722733 -12.865291 0
M  V30 24 N 9.752024 5.892192 -11.801488 0
M  V30 25 C 11.752626 4.885631 -20.034104 0
M  V30 26 C 8.429577 2.835771 -19.429791 0
M  V30 27 C 10.668171 6.539114 -6.657772 0
M  V30 28 O 8.076815 3.965478 -14.481084 0
M  V30 29 P 14.417748 5.166488 -19.371366 0 CFG=1
M  V30 30 C 4.681935 7.269511 -16.840411 0 CFG=2
M  V30 31 C 15.607914 5.991707 -18.190140 0
M  V30 32 C 12.248202 2.349577 -21.792548 0
M  V30 33 C 4.638518 6.644784 -18.222411 0 CFG=2
M  V30 34 F 12.175401 6.790619 -11.986623 0
M  V30 35 C 5.292722 6.533143 -15.660571 0
M  V30 36 C 11.780765 5.802751 -21.022859 0
M  V30 37 C 12.314761 6.119512 -17.847314 0
M  V30 38 C 9.086138 4.886599 -11.350878 0
M  V30 39 C 14.139975 3.463022 -17.118456 0
M  V30 40 C 7.587167 2.428618 -16.248466 0 CFG=2
M  V30 41 C 8.792050 3.655705 -12.214876 0
M  V30 42 C 8.974533 5.774902 -9.083923 0
M  V30 43 C 11.331814 0.691641 -17.907849 0
M  V30 44 C 8.980063 2.338886 -16.933366 0
M  V30 45 O 6.575065 1.940310 -17.094048 0
M  V30 46 C 6.789239 6.361615 -15.864000 0
M  V30 47 C 7.280007 5.038278 -16.505037 0
M  V30 48 C 9.145087 6.338314 -6.642102 0
M  V30 49 C 10.201593 5.989692 -13.136173 0
M  V30 50 H 15.956349 3.293582 -16.004987 0
M  V30 51 H 16.174930 3.324320 -17.751520 0
M  V30 52 H 15.237671 5.698525 -16.082257 0
M  V30 53 H 7.540677 5.215290 -7.587998 0
M  V30 54 H 9.055797 4.358592 -7.585380 0
M  V30 55 H 4.616909 8.501284 -19.324199 0
M  V30 56 H 6.063563 7.507859 -19.574125 0
M  V30 57 H 4.538304 7.046899 -20.334885 0
M  V30 58 H 9.367489 4.620250 -18.772264 0
M  V30 59 H 8.492853 0.916646 -18.468092 0
M  V30 60 H 12.106020 -0.406416 -19.297714 0
M  V30 61 H 10.417125 0.957868 -19.816049 0
M  V30 62 H 8.571702 4.585942 -21.706053 0
M  V30 63 H 7.585230 5.196110 -20.391441 0
M  V30 64 H 9.097374 5.980234 -20.754692 0
M  V30 65 H 17.357268 6.391658 -16.321275 0
M  V30 66 H 8.085618 3.996208 -9.737382 0
M  V30 67 H 11.068547 6.607893 -16.143246 0
M  V30 68 H 10.486771 5.244907 -17.072334 0
M  V30 69 H 11.835276 5.055351 -15.979886 0
M  V30 70 H 13.564459 2.934242 -19.137550 0
M  V30 71 H 6.177766 3.708610 -15.232177 0
M  V30 72 H 2.900096 5.992931 -16.987648 0
M  V30 73 H 2.713822 7.664939 -17.753757 0
M  V30 74 H 10.131555 2.167729 -21.554914 0
M  V30 75 H 10.613301 3.642226 -22.269367 0
M  V30 76 H 7.445277 3.165922 -19.103504 0
M  V30 77 H 8.246586 2.304149 -20.363262 0
M  V30 78 H 10.975590 7.139716 -5.802368 0
M  V30 79 H 11.200431 5.589579 -6.610674 0
M  V30 80 H 10.999353 7.061578 -7.553787 0
M  V30 81 H 4.885763 8.340461 -16.816545 0
M  V30 82 H 15.310577 7.026690 -18.022099 0
M  V30 83 H 16.542238 6.050819 -18.749961 0
M  V30 84 H 12.216884 1.822170 -22.745219 0
M  V30 85 H 13.017167 3.116378 -21.866521 0
M  V30 86 H 12.560986 1.633270 -21.033831 0
M  V30 87 H 4.930430 5.603070 -18.319934 0
M  V30 88 H 4.795485 5.590288 -15.489654 0
M  V30 89 H 5.121812 7.133489 -14.766374 0
M  V30 90 H 12.456630 6.645284 -20.982321 0
M  V30 91 H 11.131729 5.720625 -21.878971 0
M  V30 92 H 13.210293 6.541311 -17.399811 0
M  V30 93 H 11.860614 6.936267 -18.409584 0
M  V30 94 H 13.566410 3.958246 -16.344046 0
M  V30 95 H 13.970991 2.397483 -16.958782 0
M  V30 96 H 7.593808 1.701585 -15.434071 0
M  V30 97 H 8.577197 2.800660 -11.584986 0
M  V30 98 H 9.693780 3.354141 -12.745062 0
M  V30 99 H 10.056843 5.878778 -9.146493 0
M  V30 100 H 8.575712 6.751838 -9.334472 0
M  V30 101 H 10.735980 -0.098504 -17.452364 0
M  V30 102 H 11.714422 1.324429 -17.111472 0
M  V30 103 H 9.518569 1.600710 -16.349744 0
M  V30 104 H 9.545009 3.259109 -16.800464 0
M  V30 105 H 6.752831 1.032322 -17.284836 0
M  V30 106 H 7.328295 6.559072 -14.936320 0
M  V30 107 H 6.975755 7.188856 -16.537586 0
M  V30 108 H 8.311304 5.192280 -16.804904 0
M  V30 109 H 6.740350 4.836832 -17.426396 0
M  V30 110 H 8.651470 7.301194 -6.780140 0
M  V30 111 H 8.853573 5.990194 -5.656973 0
M  V30 112 H 10.375647 5.059075 -13.645745 0
M  V30 113 H 9.337160 6.390090 -13.645326 0
M  V30 END ATOM
M  V30 BEGIN BOND
M  V30 1 1 2 1
M  V30 2 1 10 7
M  V30 3 1 10 8
M  V30 4 1 11 5
M  V30 5 1 12 2
M  V30 6 1 19 5
M  V30 7 1 19 7
M  V30 8 1 19 20 CFG=3
M  V30 9 1 21 15
M  V30 10 2 23 6
M  V30 11 1 25 19
M  V30 12 1 25 21
M  V30 13 1 26 5
M  V30 14 1 26 8
M  V30 15 1 28 6
M  V30 16 1 28 16
M  V30 17 1 29 15
M  V30 18 2 29 17
M  V30 19 1 29 21
M  V30 20 1 30 18
M  V30 21 1 31 2
M  V30 22 1 29 31 CFG=1
M  V30 23 1 32 20
M  V30 24 1 33 4
M  V30 25 1 33 18
M  V30 26 1 33 30
M  V30 27 1 34 22
M  V30 28 1 35 30
M  V30 29 2 36 25
M  V30 30 1 37 14
M  V30 31 1 21 37 CFG=1
M  V30 32 1 38 13
M  V30 33 2 38 24
M  V30 34 1 39 1
M  V30 35 1 39 15
M  V30 36 1 40 16
M  V30 37 1 41 6
M  V30 38 1 41 38
M  V30 39 1 42 3
M  V30 40 1 42 13
M  V30 41 1 43 9
M  V30 42 1 43 10
M  V30 43 1 44 8
M  V30 44 1 44 40
M  V30 45 1 45 40
M  V30 46 1 46 35
M  V30 47 1 47 16
M  V30 48 1 47 46
M  V30 49 1 48 3
M  V30 50 1 48 27
M  V30 51 1 49 22
M  V30 52 1 49 24
M  V30 53 1 50 1
M  V30 54 1 51 1
M  V30 55 1 2 52 CFG=1
M  V30 56 1 53 3
M  V30 57 1 54 3
M  V30 58 1 55 4
M  V30 59 1 56 4
M  V30 60 1 57 4
M  V30 61 1 5 58 CFG=1
M  V30 62 1 8 59 CFG=1
M  V30 63 1 60 9
M  V30 64 1 10 61 CFG=3
M  V30 65 1 62 11
M  V30 66 1 63 11
M  V30 67 1 64 11
M  V30 68 1 65 12
M  V30 69 1 66 13
M  V30 70 1 67 14
M  V30 71 1 68 14
M  V30 72 1 69 14
M  V30 73 1 15 70 CFG=3
M  V30 74 1 16 71 CFG=1
M  V30 75 1 72 18
M  V30 76 1 73 18
M  V30 77 1 74 20
M  V30 78 1 75 20
M  V30 79 1 76 26
M  V30 80 1 77 26
M  V30 81 1 78 27
M  V30 82 1 79 27
M  V30 83 1 80 27
M  V30 84 1 30 81 CFG=3
M  V30 85 1 82 31
M  V30 86 1 83 31
M  V30 87 1 84 32
M  V30 88 1 85 32
M  V30 89 1 86 32
M  V30 90 1 33 87 CFG=1
M  V30 91 1 88 35
M  V30 92 1 89 35
M  V30 93 1 90 36
M  V30 94 1 91 36
M  V30 95 1 92 37
M  V30 96 1 93 37
M  V30 97 1 94 39
M  V30 98 1 95 39
M  V30 99 1 40 96 CFG=1
M  V30 100 1 97 41
M  V30 101 1 98 41
M  V30 102 1 99 42
M  V30 103 1 100 42
M  V30 104 1 101 43
M  V30 105 1 102 43
M  V30 106 1 103 44
M  V30 107 1 104 44
M  V30 108 1 105 45
M  V30 109 1 106 46
M  V30 110 1 107 46
M  V30 111 1 108 47
M  V30 112 1 109 47
M  V30 113 1 110 48
M  V30 114 1 111 48
M  V30 115 1 112 49
M  V30 116 1 113 49
M  V30 END BOND
M  V30 END CTAB
M  END
>  <i_epik_Tot_Q>  (1) 
0

>  <i_epik_Tot_abs_Q>  (1) 
0

>  <i_i_glide_confnum>  (1) 
11933

>  <i_i_glide_lignum>  (1) 
156

>  <i_i_glide_posenum>  (1) 
196

>  <i_i_glide_rotatable_bonds>  (1) 
25

>  <i_lp_mmshare_version>  (1) 
72125

>  <i_m_source_file_index>  (1) 
87

>  <i_f3d_flags>  (1) 
0

>  <num_sample>  (1) 
100

>  <b_lp_Chiralities_Consistent>  (1) 
1

>  <r_epik_Charging_Adjusted_Penalty>  (1) 
1.2316584192148512

>  <r_epik_Ionization_Penalty>  (1) 
1.2316590375040075

>  <r_epik_Ionization_Penalty_Charging>  (1) 
0

>  <r_epik_Ionization_Penalty_Neutral>  (1) 
1.2316590375040075

>  <r_epik_State_Penalty>  (1) 
1.2316584192148512

>  <r_glide_ring_energy>  (1) 
0

>  <r_i_docking_score>  (1) 
-3.7876267117621061

>  <r_i_glide_ecoul>  (1) 
-4.3252235961676329

>  <r_i_glide_eff_state_penalty>  (1) 
1.2316584192148512

>  <r_i_glide_einternal>  (1) 
18.532405293473929

>  <r_i_glide_emodel>  (1) 
-34.194079649879214

>  <r_i_glide_emodel_strain>  (1) 
3.879293144619453

>  <r_i_glide_energy>  (1) 
-36.118776373889872

>  <r_i_glide_erotb>  (1) 
0.57622798544967491

>  <r_i_glide_esite>  (1) 
-0.03339943398093969

>  <r_i_glide_evdw>  (1) 
-31.79355277772224

>  <r_i_glide_gscore>  (1) 
-5.0192851309769573

>  <r_i_glide_gscore_strain>  (1) 
0

>  <r_i_glide_hbond>  (1) 
0

>  <r_i_glide_ligand_efficiency>  (1) 
-0.077298504321675635

>  <r_i_glide_ligand_efficiency_ln>  (1) 
-0.77427756559761718

>  <r_i_glide_ligand_efficiency_sa>  (1) 
-0.28285885824054302

>  <r_i_glide_lipo>  (1) 
-2.5522118418201067

>  <r_i_glide_metal>  (1) 
-0

>  <r_i_glide_rewards>  (1) 
-0.77144066231432851

>  <r_lp_Energy>  (1) 
50.302675999999998

>  <s_epik_Chemistry_Notes>  (1) 
This compound has an ester and may undergo hydrolysis at high or low pH. This compound has an imine and may undergo hydrolysis. This compound contains an acetal/aminal-like group ( X-CH(R)-Y where X, Y are N, S, or O) that may be acid/base labile, releasing an aldehyde.

>  <s_epik_cmdline>  (1) 
J2VwaWtfcHl0aG9uJywgJy1waHQnLCAnMS4wJywgJy1waCcsICc3LjQnLCAnLXRuJywgJzgnLCAnLW1hJywgJzUwMCcsICctaW1hZScsICc8aW5maWxlLm1hZT4nLCAnLW9tYWUnLCAnPG91dGZpbGUubWFlPic=

>  <s_epik_input>  (1) 
W09IXVtDQEBIXShbQ0gyXTEpW0NIMl1bQ0gyXVtDQEhdKFAxMj1PKVtDQEBdMihbQ0gyXVtDSDNdKUMoPVtDSDJdKVtDQF0zKFtDSDJdW0NIM10pW0NAQEhdKFtDSDNdKVtDSDJdW0NAQEhdKFtDQEBIXShPMylbQ0gyXVtPSF0pW0NIMl1bQ0BIXShbT0hdKVtDQEhdKFtDSDJdW0NIMl1bQ0gyXVtDQEBIXTRbQ0gyXVtDQEhdNFtDSDNdKU9DKD1PKVtDSDJdQyg9TlxbQ0gyXU9GKS9bTkhdW0NIMl1bQ0gyXVtDSDJdW0NIM10=

>  <s_glide_docking_method>  (1) 
confgen

>  <s_i_glide_gridfile>  (1) 
gpcr_drd2_6luq_protein_autoprepared_prepared

>  <s_lp_Force_Field>  (1) 
S-OPLS

>  <s_lp_Variant>  (1) 
DiffSBDD_86-4

>  <s_m_source_file>  (1) 
generated_generic_title2_ligand_DiffSBDD_2026-06-23_prepared.sdf

>  <GenAI_Model>  (1) 
DiffSBDD

>  <Protein>  (1) 
generic_title2

$$$$
DiffSBDD_90
     RDKit          3D

  0  0  0  0  0  0  0  0  0  0999 V3000
M  V30 BEGIN CTAB
M  V30 COUNTS 80 84 0 0 1
M  V30 BEGIN ATOM
M  V30 1 C 6.907212 6.241344 -17.386810 0
M  V30 2 C 7.144261 4.731474 -17.468961 0 CFG=1
M  V30 3 C 8.641543 2.776545 -20.149965 0
M  V30 4 C 8.855234 7.584417 -12.089071 0 CFG=2
M  V30 5 C 8.688118 4.892719 -19.603841 0
M  V30 6 C 8.952408 1.600571 -20.933282 0 CFG=2
M  V30 7 C 7.292199 5.250399 -13.708157 0 CFG=2
M  V30 8 O 5.375401 6.645184 -15.722116 0 CHG=-1
M  V30 9 C 6.662199 6.534602 -15.878534 0 CFG=1
M  V30 10 C 11.262235 6.782038 -11.986176 0
M  V30 11 O 9.241770 4.869757 -8.536720 0
M  V30 12 C 7.896364 4.246010 -18.669315 0
M  V30 13 C 9.077225 4.023097 -15.730862 0 CFG=2
M  V30 14 O 9.072218 4.840333 -10.778226 0 CHG=-1
M  V30 15 O 8.387717 8.790060 -11.985626 0 CHG=-1
M  V30 16 C 6.773954 6.454267 -12.841183 0 CFG=2
M  V30 17 N 7.691951 6.787013 -11.730033 0 CHG=1
M  V30 18 N 6.919572 5.280727 -15.158948 0 CFG=1 CHG=1
M  V30 19 C 11.316865 8.390066 -8.581575 0
M  V30 20 C 5.375460 6.280081 -12.290558 0
M  V30 21 O 9.912771 3.594756 -16.785840 0
M  V30 22 O 5.359678 5.394359 -11.184262 0
M  V30 23 O 8.575395 2.162475 -13.219205 0
M  V30 24 C 7.965923 3.012435 -15.439207 0 CFG=1
M  V30 25 C 9.371800 5.365172 -9.678431 0
M  V30 26 C 6.871468 3.850679 -13.213681 0
M  V30 27 N 9.102691 3.921574 -20.473017 0
M  V30 28 O 12.102887 8.749515 -9.460602 0
M  V30 29 C 9.823178 2.417617 -22.004797 0
M  V30 30 N 7.900644 2.921672 -19.058424 0 CHG=1
M  V30 31 C 10.119435 7.416389 -11.174186 0 CFG=2
M  V30 32 O 6.519478 0.558669 -19.655821 0
M  V30 33 O 7.817277 0.985861 -21.536036 0
M  V30 34 C 7.190212 0.018515 -20.750527 0
M  V30 35 C 11.335362 9.071049 -7.216890 0
M  V30 36 C 9.984963 6.770997 -9.736926 0
M  V30 37 C 7.514010 2.684011 -13.995665 0 CFG=2
M  V30 38 C 5.296696 1.188818 -20.004463 0
M  V30 39 N 10.382726 7.368165 -8.664389 0
M  V30 40 C 9.927755 3.978635 -21.630814 0
M  V30 41 C 7.642651 4.367823 -16.076020 0 CFG=1
M  V30 42 H 7.775494 6.774564 -17.752755 0
M  V30 43 H 6.084082 6.555073 -18.034039 0
M  V30 44 H 6.175407 4.291132 -17.586109 0
M  V30 45 H 9.139530 7.206880 -13.061394 0
M  V30 46 H 8.972254 5.929795 -19.707478 0
M  V30 47 H 9.567865 0.928186 -20.331494 0
M  V30 48 H 8.367720 5.303337 -13.618460 0
M  V30 49 H 7.375394 7.271182 -15.531752 0
M  V30 50 H 12.175385 6.790317 -11.404588 0
M  V30 51 H 11.023293 5.758707 -12.273044 0
M  V30 52 H 11.463778 7.316923 -12.911836 0
M  V30 53 H 9.643244 4.497922 -14.936067 0
M  V30 54 H 6.721196 7.357534 -13.446536 0
M  V30 55 H 7.231790 7.313458 -10.985916 0
M  V30 56 H 4.779016 5.908487 -13.120635 0
M  V30 57 H 4.974864 7.244958 -11.976376 0
M  V30 58 H 10.692782 3.209670 -16.409076 0
M  V30 59 H 5.695473 5.834296 -10.411794 0
M  V30 60 H 8.309261 2.066297 -12.315170 0
M  V30 61 H 7.954497 2.144416 -16.095199 0
M  V30 62 H 7.066636 3.739942 -12.146732 0
M  V30 63 H 5.789286 3.753989 -13.317303 0
M  V30 64 H 10.820609 1.981541 -22.082685 0
M  V30 65 H 9.373463 2.315628 -22.993786 0
M  V30 66 H 10.447998 8.439497 -11.050755 0
M  V30 67 H 6.489480 -0.538178 -21.379114 0
M  V30 68 H 7.931639 -0.696591 -20.389801 0
M  V30 69 H 11.930800 8.483383 -6.518604 0
M  V30 70 H 11.775375 10.063557 -7.283719 0
M  V30 71 H 10.324558 9.176796 -6.817204 0
M  V30 72 H 6.773317 1.884639 -14.062953 0
M  V30 73 H 4.868635 1.656475 -19.119457 0
M  V30 74 H 5.437575 1.964368 -20.758114 0
M  V30 75 H 4.576685 0.463299 -20.380788 0
M  V30 76 H 9.481014 4.642640 -22.371982 0
M  V30 77 H 10.930986 4.299257 -21.348747 0
M  V30 78 H 7.409533 2.168140 -18.590236 0
M  V30 79 H 8.055418 5.913506 -11.330218 0
M  V30 80 H 5.963730 4.953399 -15.159221 0
M  V30 END ATOM
M  V30 BEGIN BOND
M  V30 1 1 2 1
M  V30 2 1 6 3
M  V30 3 1 9 1
M  V30 4 1 9 8
M  V30 5 1 12 2
M  V30 6 2 12 5
M  V30 7 1 15 4
M  V30 8 1 16 7
M  V30 9 1 17 4
M  V30 10 1 17 16
M  V30 11 1 18 7
M  V30 12 1 18 9
M  V30 13 1 20 16
M  V30 14 1 21 13
M  V30 15 1 22 20
M  V30 16 1 24 13
M  V30 17 2 25 11
M  V30 18 1 25 14
M  V30 19 1 26 7
M  V30 20 1 27 3
M  V30 21 1 27 5
M  V30 22 2 28 19
M  V30 23 1 29 6
M  V30 24 2 30 3
M  V30 25 1 30 12
M  V30 26 1 31 4
M  V30 27 1 31 10
M  V30 28 1 33 6
M  V30 29 1 34 32
M  V30 30 1 34 33
M  V30 31 1 35 19
M  V30 32 1 36 25
M  V30 33 1 36 31
M  V30 34 1 37 23
M  V30 35 1 37 24
M  V30 36 1 37 26
M  V30 37 1 38 32
M  V30 38 1 39 19
M  V30 39 2 39 36
M  V30 40 1 40 27
M  V30 41 1 40 29
M  V30 42 1 41 2 CFG=3
M  V30 43 1 41 13
M  V30 44 1 41 18
M  V30 45 1 41 24
M  V30 46 1 42 1
M  V30 47 1 43 1
M  V30 48 1 2 44 CFG=3
M  V30 49 1 4 45 CFG=3
M  V30 50 1 46 5
M  V30 51 1 6 47 CFG=1
M  V30 52 1 7 48 CFG=3
M  V30 53 1 9 49 CFG=1
M  V30 54 1 50 10
M  V30 55 1 51 10
M  V30 56 1 52 10
M  V30 57 1 13 53 CFG=1
M  V30 58 1 16 54 CFG=3
M  V30 59 1 55 17
M  V30 60 1 56 20
M  V30 61 1 57 20
M  V30 62 1 58 21
M  V30 63 1 59 22
M  V30 64 1 60 23
M  V30 65 1 24 61 CFG=3
M  V30 66 1 62 26
M  V30 67 1 63 26
M  V30 68 1 64 29
M  V30 69 1 65 29
M  V30 70 1 31 66 CFG=1
M  V30 71 1 67 34
M  V30 72 1 68 34
M  V30 73 1 69 35
M  V30 74 1 70 35
M  V30 75 1 71 35
M  V30 76 1 37 72 CFG=3
M  V30 77 1 73 38
M  V30 78 1 74 38
M  V30 79 1 75 38
M  V30 80 1 76 40
M  V30 81 1 77 40
M  V30 82 1 78 30
M  V30 83 1 79 17
M  V30 84 1 18 80 CFG=1
M  V30 END BOND
M  V30 END CTAB
M  END
>  <i_epik_Tot_Q>  (1) 
0

>  <i_epik_Tot_abs_Q>  (1) 
6

>  <i_i_glide_confnum>  (1) 
2720

>  <i_i_glide_lignum>  (1) 
166

>  <i_i_glide_posenum>  (1) 
335

>  <i_i_glide_rotatable_bonds>  (1) 
15

>  <i_lp_mmshare_version>  (1) 
72125

>  <i_m_source_file_index>  (1) 
91

>  <i_f3d_flags>  (1) 
0

>  <num_sample>  (1) 
100

>  <b_lp_Chiralities_Consistent>  (1) 
1

>  <r_epik_Charging_Adjusted_Penalty>  (1) 
0.35079833336250127

>  <r_epik_Ionization_Penalty>  (1) 
1.4702178244609605

>  <r_epik_Ionization_Penalty_Charging>  (1) 
0.099885809697688246

>  <r_epik_Ionization_Penalty_Neutral>  (1) 
1.3703320147632723

>  <r_epik_State_Penalty>  (1) 
0.25091252366481304

>  <r_glide_ring_energy>  (1) 
0

>  <r_i_docking_score>  (1) 
-3.7794488214461261

>  <r_i_glide_ecoul>  (1) 
-5.5417895806882287

>  <r_i_glide_eff_state_penalty>  (1) 
0.25091252366481304

>  <r_i_glide_einternal>  (1) 
12.71173145934636

>  <r_i_glide_emodel>  (1) 
-30.902455498929513

>  <r_i_glide_emodel_strain>  (1) 
2.5985336361287636

>  <r_i_glide_energy>  (1) 
-28.278153226648119

>  <r_i_glide_erotb>  (1) 
0.57888693115673628

>  <r_i_glide_esite>  (1) 
-0.26564673478946166

>  <r_i_glide_evdw>  (1) 
-22.736363645959891

>  <r_i_glide_gscore>  (1) 
-4.030361345110939

>  <r_i_glide_gscore_strain>  (1) 
0

>  <r_i_glide_hbond>  (1) 
-0.20000000000000001

>  <r_i_glide_ligand_efficiency>  (1) 
-0.092181678571856732

>  <r_i_glide_ligand_efficiency_ln>  (1) 
-0.80182264489883714

>  <r_i_glide_ligand_efficiency_sa>  (1) 
-0.31786245329889573

>  <r_i_glide_lipo>  (1) 
-1.1282049735452686

>  <r_i_glide_metal>  (1) 
-0

>  <r_i_glide_rewards>  (1) 
-1.047309948531717

>  <r_lp_Energy>  (1) 
62.791187999999998

>  <r_lp_tautomer_probability>  (1) 
1

>  <s_epik_Chemistry_Notes>  (1) 
This compound has an imine and may undergo hydrolysis. This compound contains an acetal/aminal-like group ( X-CH(R)-Y where X, Y are N, S, or O) that may be acid/base labile, releasing an aldehyde.

>  <s_epik_cmdline>  (1) 
J2VwaWtfcHl0aG9uJywgJy1waHQnLCAnMS4wJywgJy1waCcsICc3LjQnLCAnLXRuJywgJzgnLCAnLW1hJywgJzUwMCcsICctaW1hZScsICc8aW5maWxlLm1hZT4nLCAnLW9tYWUnLCAnPG91dGZpbGUubWFlPic=

>  <s_epik_input>  (1) 
W0NIM11PW0NIMl1PW0NASF0xW0NIMl1bQ0gyXW4oYzEyKVtjSF1jKG4yKVtDQEBIXTNbQ0gyXVtDQEBIXShbT0hdKU4oW0NAQF0zNDUpW0NASF0oW0NIMl1bQ0BIXShbT0hdKVtDQEBIXTVbQ0BIXTRbT0hdKVtDQEBIXShbQ0gyXVtPSF0pW05IXVtDQEBIXShbT0hdKVtDQEhdKFtDSDNdKUMoXEMoPU8pW09IXSk9Ti9DKD1PKVtDSDNd

>  <s_glide_docking_method>  (1) 
confgen

>  <s_i_glide_gridfile>  (1) 
gpcr_drd2_6luq_protein_autoprepared_prepared

>  <s_lp_Force_Field>  (1) 
S-OPLS

>  <s_lp_Variant>  (1) 
DiffSBDD_90-1

>  <s_m_source_file>  (1) 
generated_generic_title2_ligand_DiffSBDD_2026-06-23_prepared.sdf

>  <GenAI_Model>  (1) 
DiffSBDD

>  <Protein>  (1) 
generic_title2

$$$$
DiffSBDD_65
     RDKit          3D

  0  0  0  0  0  0  0  0  0  0999 V3000
M  V30 BEGIN CTAB
M  V30 COUNTS 66 68 0 0 1
M  V30 BEGIN ATOM
M  V30 1 C 11.544887 7.948581 -6.393092 0 CFG=2
M  V30 2 N 7.229980 5.063602 -10.583390 0
M  V30 3 C 11.311059 8.218047 -4.882162 0
M  V30 4 C 6.769381 5.514864 -15.172797 0
M  V30 5 C 8.414628 5.225653 -18.712714 0
M  V30 6 C 7.704502 4.133113 -17.029519 0 CFG=1
M  V30 7 O 12.174137 9.075653 -6.967259 0
M  V30 8 O 5.393079 3.990227 -11.371589 0
M  V30 9 O 6.310834 5.377641 -13.867844 0
M  V30 10 O 9.430696 8.790174 -7.287747 0
M  V30 11 C 10.208683 7.632510 -7.103372 0 CFG=1
M  V30 12 C 7.839558 2.595475 -17.133708 0
M  V30 13 C 12.557520 8.401374 -3.990240 0
M  V30 14 O 11.280786 5.529026 -17.454732 0
M  V30 15 C 5.950679 4.309453 -19.085642 0
M  V30 16 C 8.337127 5.589864 -11.086116 0
M  V30 17 F 10.659096 7.159193 -4.400136 0
M  V30 18 C 9.353019 4.899214 -8.262087 0
M  V30 19 C 7.170562 4.643834 -12.998113 0 CFG=1
M  V30 20 C 9.368375 6.308750 -8.860805 0 CFG=2
M  V30 21 C 9.367281 6.239314 -10.385728 0
M  V30 22 N 10.437440 6.790245 -11.031067 0
M  V30 23 O 10.489627 6.999813 -8.312699 0
M  V30 24 C 8.332146 2.001213 -18.466604 0
M  V30 25 F 10.575458 9.325439 -4.785012 0
M  V30 26 C 9.483608 5.875063 -13.117186 0
M  V30 27 C 7.005281 4.934749 -18.169539 0 CFG=2
M  V30 28 C 8.383999 5.413272 -12.403771 0
M  V30 29 C 10.369490 4.545129 -17.013896 0
M  V30 30 O 12.189706 8.738876 -2.666296 0
M  V30 31 C 6.484203 4.521876 -11.544584 0
M  V30 32 O 7.135776 4.279525 -15.716652 0
M  V30 33 C 10.496447 6.566223 -12.385112 0
M  V30 34 C 8.947489 5.030126 -17.285745 0 CFG=1
M  V30 35 H 12.175385 7.067477 -6.523950 0
M  V30 36 H 6.990430 5.111013 -9.601751 0
M  V30 37 H 5.941062 5.940838 -15.738991 0
M  V30 38 H 7.584082 6.234076 -15.161421 0
M  V30 39 H 8.550355 6.233117 -19.109101 0
M  V30 40 H 8.774712 4.479561 -19.420739 0
M  V30 41 H 11.480314 9.687968 -7.170288 0
M  V30 42 H 8.617614 8.527202 -7.700669 0
M  V30 43 H 9.613391 6.964545 -6.480301 0
M  V30 44 H 8.504041 2.243955 -16.343663 0
M  V30 45 H 6.872754 2.140310 -16.912124 0
M  V30 46 H 13.217405 9.173358 -4.384788 0
M  V30 47 H 13.119984 7.473438 -3.942340 0
M  V30 48 H 12.159435 5.235601 -17.265787 0
M  V30 49 H 5.049498 4.921860 -19.124953 0
M  V30 50 H 5.645158 3.315789 -18.757709 0
M  V30 51 H 6.319962 4.217292 -20.107596 0
M  V30 52 H 8.420829 4.390257 -8.480370 0
M  V30 53 H 10.174892 4.286508 -8.628621 0
M  V30 54 H 9.401614 4.945853 -7.185088 0
M  V30 55 H 7.443628 3.653755 -13.364518 0
M  V30 56 H 8.471409 6.790037 -8.519815 0
M  V30 57 H 8.357567 0.913593 -18.405490 0
M  V30 58 H 7.680433 2.255975 -19.299631 0
M  V30 59 H 9.338745 2.321836 -18.723882 0
M  V30 60 H 9.567707 5.717162 -14.180483 0
M  V30 61 H 6.623776 5.884236 -17.795039 0
M  V30 62 H 10.522154 4.390155 -15.945147 0
M  V30 63 H 10.594979 3.604601 -17.509202 0
M  V30 64 H 11.760101 9.580398 -2.675130 0
M  V30 65 H 11.370903 6.947682 -12.893682 0
M  V30 66 H 8.831118 5.990147 -16.797516 0
M  V30 END ATOM
M  V30 BEGIN BOND
M  V30 1 1 3 1
M  V30 2 1 7 1
M  V30 3 1 9 4
M  V30 4 1 11 1
M  V30 5 1 11 10
M  V30 6 1 12 6
M  V30 7 1 13 3
M  V30 8 1 16 2
M  V30 9 1 17 3
M  V30 10 1 19 9
M  V30 11 1 20 18
M  V30 12 1 21 16
M  V30 13 1 21 20
M  V30 14 2 22 21
M  V30 15 1 23 11
M  V30 16 1 23 20
M  V30 17 1 24 12
M  V30 18 1 25 3
M  V30 19 1 27 5
M  V30 20 1 27 6
M  V30 21 1 27 15
M  V30 22 2 28 16
M  V30 23 1 28 19
M  V30 24 1 28 26
M  V30 25 1 29 14
M  V30 26 1 30 13
M  V30 27 1 31 2
M  V30 28 2 31 8
M  V30 29 1 31 19
M  V30 30 1 32 4
M  V30 31 1 6 32 CFG=1
M  V30 32 1 33 22
M  V30 33 2 33 26
M  V30 34 1 34 5
M  V30 35 1 34 6
M  V30 36 1 34 29
M  V30 37 1 1 35 CFG=1
M  V30 38 1 36 2
M  V30 39 1 37 4
M  V30 40 1 38 4
M  V30 41 1 39 5
M  V30 42 1 40 5
M  V30 43 1 41 7
M  V30 44 1 42 10
M  V30 45 1 11 43 CFG=1
M  V30 46 1 44 12
M  V30 47 1 45 12
M  V30 48 1 46 13
M  V30 49 1 47 13
M  V30 50 1 48 14
M  V30 51 1 49 15
M  V30 52 1 50 15
M  V30 53 1 51 15
M  V30 54 1 52 18
M  V30 55 1 53 18
M  V30 56 1 54 18
M  V30 57 1 19 55 CFG=3
M  V30 58 1 20 56 CFG=1
M  V30 59 1 57 24
M  V30 60 1 58 24
M  V30 61 1 59 24
M  V30 62 1 60 26
M  V30 63 1 27 61 CFG=1
M  V30 64 1 62 29
M  V30 65 1 63 29
M  V30 66 1 64 30
M  V30 67 1 65 33
M  V30 68 1 34 66 CFG=1
M  V30 END BOND
M  V30 END CTAB
M  END
>  <i_epik_Tot_Q>  (1) 
0

>  <i_epik_Tot_abs_Q>  (1) 
0

>  <i_i_glide_confnum>  (1) 
3555

>  <i_i_glide_lignum>  (1) 
107

>  <i_i_glide_posenum>  (1) 
326

>  <i_i_glide_rotatable_bonds>  (1) 
16

>  <i_lp_mmshare_version>  (1) 
72125

>  <i_m_source_file_index>  (1) 
66

>  <i_f3d_flags>  (1) 
0

>  <num_sample>  (1) 
100

>  <b_lp_Chiralities_Consistent>  (1) 
1

>  <r_epik_Charging_Adjusted_Penalty>  (1) 
0

>  <r_epik_Ionization_Penalty>  (1) 
0.020984920231991385

>  <r_epik_Ionization_Penalty_Charging>  (1) 
0

>  <r_epik_Ionization_Penalty_Neutral>  (1) 
0.020984920231991385

>  <r_epik_State_Penalty>  (1) 
-0

>  <r_glide_ring_energy>  (1) 
0

>  <r_i_docking_score>  (1) 
-3.7769208549637625

>  <r_i_glide_ecoul>  (1) 
-4.6920195862755385

>  <r_i_glide_eff_state_penalty>  (1) 
-0

>  <r_i_glide_einternal>  (1) 
13.629240231223681

>  <r_i_glide_emodel>  (1) 
-33.513252434594591

>  <r_i_glide_emodel_strain>  (1) 
0.64566358576139748

>  <r_i_glide_energy>  (1) 
-33.201412605747208

>  <r_i_glide_erotb>  (1) 
0.93044466926125857

>  <r_i_glide_esite>  (1) 
-0.093481217867547525

>  <r_i_glide_evdw>  (1) 
-28.509393019471666

>  <r_i_glide_gscore>  (1) 
-3.7769208549637625

>  <r_i_glide_gscore_strain>  (1) 
0

>  <r_i_glide_hbond>  (1) 
-0.0010524195800095974

>  <r_i_glide_ligand_efficiency>  (1) 
-0.1110859074989342

>  <r_i_glide_ligand_efficiency_ln>  (1) 
-0.83442775590308238

>  <r_i_glide_ligand_efficiency_sa>  (1) 
-0.35987521688916613

>  <r_i_glide_lipo>  (1) 
-1.5167352092034589

>  <r_i_glide_metal>  (1) 
-0

>  <r_i_glide_rewards>  (1) 
-0.96682408865909086

>  <r_lp_Energy>  (1) 
34.219946999999998

>  <r_lp_tautomer_probability>  (1) 
1

>  <s_epik_Chemistry_Notes>  (1) 
This compound contains an acetal/aminal-like group ( X-CH(R)-Y where X, Y are N, S, or O) that may be acid/base labile, releasing an aldehyde.

>  <s_epik_cmdline>  (1) 
J2VwaWtfcHl0aG9uJywgJy1waHQnLCAnMS4wJywgJy1waCcsICc3LjQnLCAnLXRuJywgJzgnLCAnLW1hJywgJzUwMCcsICctaW1hZScsICc8aW5maWxlLm1hZT4nLCAnLW9tYWUnLCAnPG91dGZpbGUubWFlPic=

>  <s_epik_input>  (1) 
W09IXVtDSDJdQyhGKShGKVtDQEhdKFtPSF0pW0NAQEhdKFtPSF0pT1tDQEhdKFtDSDNdKWMxbltjSF1bY0hdYyhjMTIpW0NASF0oQyg9TylbTkhdMilPW0NIMl1PW0NAQF0zKFtDSDJdW0NIM10pW0NASF0oW0NIM10pW0NIMl1bQ0BASF0zW0NIMl1bT0hd

>  <s_glide_docking_method>  (1) 
confgen

>  <s_i_glide_gridfile>  (1) 
gpcr_drd2_6luq_protein_autoprepared_prepared

>  <s_lp_Force_Field>  (1) 
S-OPLS

>  <s_lp_Variant>  (1) 
DiffSBDD_65-2

>  <s_m_source_file>  (1) 
generated_generic_title2_ligand_DiffSBDD_2026-06-23_prepared.sdf

>  <GenAI_Model>  (1) 
DiffSBDD

>  <Protein>  (1) 
generic_title2

$$$$
DiffSBDD_78
     RDKit          3D

  0  0  0  0  0  0  0  0  0  0999 V3000
M  V30 BEGIN CTAB
M  V30 COUNTS 81 85 0 0 1
M  V30 BEGIN ATOM
M  V30 1 C 11.353784 7.392303 -5.400273 0 CFG=2
M  V30 2 C 11.076853 6.638082 -4.086708 0
M  V30 3 C 6.725859 7.283607 -12.479152 0 CFG=1
M  V30 4 C 7.295860 4.872781 -13.675905 0 CFG=2
M  V30 5 C 11.889757 8.817620 -5.218931 0
M  V30 6 N 7.777761 3.153149 -15.432587 0 CHG=1
M  V30 7 C 5.923276 5.011324 -12.975754 0 CFG=1
M  V30 8 C 7.153756 5.446064 -10.787565 0 CFG=1
M  V30 9 N 10.164417 7.622939 -6.246893 0 CFG=1 CHG=1
M  V30 10 C 10.587688 8.606115 -7.265217 0
M  V30 11 N 8.107173 4.662786 -9.951745 0 CFG=1 CHG=1
M  V30 12 C 8.930377 7.262076 -11.221973 0
M  V30 13 C 7.697197 3.418195 -13.979041 0
M  V30 14 C 8.237784 1.626301 -17.248868 0
M  V30 15 O 8.297161 5.547407 -12.877893 0
M  V30 16 C 9.286521 4.045591 -10.613318 0
M  V30 17 C 8.167518 0.181788 -17.783088 0 CFG=1
M  V30 18 C 5.312870 7.475940 -11.967308 0
M  V30 19 C 7.799146 6.410214 -11.825793 0 CFG=2
M  V30 20 F 9.067324 -0.558254 -17.134333 0
M  V30 21 C 11.736104 9.404731 -6.624010 0
M  V30 22 C 9.844246 7.908939 -12.193559 0
M  V30 23 O 6.545120 1.148015 -15.623442 0
M  V30 24 C 6.098160 4.557721 -11.503044 0
M  V30 25 C 6.769428 -0.398599 -17.494057 0 CFG=1
M  V30 26 C 9.296408 6.188764 -8.204600 0
M  V30 27 C 7.849553 1.606855 -15.755362 0 CFG=2
M  V30 28 C 9.431015 6.413111 -6.693446 0
M  V30 29 C 8.316936 5.043834 -8.516128 0
M  V30 30 C 8.543448 0.093182 -19.270905 0
M  V30 31 C 6.391593 -0.212549 -16.011603 0
M  V30 32 C 5.595488 6.491628 -13.085339 0 CFG=1
M  V30 33 F 5.850721 0.203434 -18.251336 0
M  V30 34 H 12.011370 6.780582 -6.017528 0
M  V30 35 H 11.634143 5.701817 -4.059126 0
M  V30 36 H 11.376046 7.213924 -3.209647 0
M  V30 37 H 10.025043 6.384761 -3.972868 0
M  V30 38 H 7.138899 7.990795 -13.184454 0
M  V30 39 H 7.251995 5.415041 -14.623280 0
M  V30 40 H 12.904762 8.885128 -4.821541 0
M  V30 41 H 11.255151 9.370060 -4.523656 0
M  V30 42 H 6.954069 3.534221 -15.879668 0
M  V30 43 H 5.150403 4.430619 -13.481428 0
M  V30 44 H 6.578293 5.990103 -10.054135 0
M  V30 45 H 10.977682 8.131163 -8.165092 0
M  V30 46 H 9.716093 9.189963 -7.544082 0
M  V30 47 H 9.602140 6.674650 -10.622177 0
M  V30 48 H 8.575357 8.070340 -10.592721 0
M  V30 49 H 8.667154 3.194853 -13.536805 0
M  V30 50 H 6.977537 2.726983 -13.534055 0
M  V30 51 H 7.551003 2.267264 -17.803953 0
M  V30 52 H 9.244000 2.032910 -17.357637 0
M  V30 53 H 9.922715 4.720083 -11.175168 0
M  V30 54 H 9.905295 3.590478 -9.849447 0
M  V30 55 H 8.977102 3.254865 -11.292029 0
M  V30 56 H 4.795366 8.393198 -12.245211 0
M  V30 57 H 4.997520 7.073379 -11.009200 0
M  V30 58 H 12.654197 9.222880 -7.189711 0
M  V30 59 H 11.539052 10.477485 -6.613471 0
M  V30 60 H 10.575103 8.390464 -11.570734 0
M  V30 61 H 9.321753 8.650750 -12.784197 0
M  V30 62 H 10.371815 7.172101 -12.787169 0
M  V30 63 H 5.144485 4.619352 -10.976219 0
M  V30 64 H 6.380383 3.508296 -11.468916 0
M  V30 65 H 6.730137 -1.455486 -17.759137 0
M  V30 66 H 10.276773 5.982670 -8.633088 0
M  V30 67 H 8.927874 7.114637 -8.627351 0
M  V30 68 H 8.560698 1.083091 -15.112927 0
M  V30 69 H 8.447003 6.420925 -6.224648 0
M  V30 70 H 9.966497 5.584016 -6.277871 0
M  V30 71 H 7.375565 5.275529 -8.044085 0
M  V30 72 H 8.671215 4.157544 -7.987534 0
M  V30 73 H 7.873480 0.688509 -19.892048 0
M  V30 74 H 9.558932 0.449701 -19.442456 0
M  V30 75 H 8.496796 -0.936877 -19.628308 0
M  V30 76 H 7.034071 -0.810559 -15.370316 0
M  V30 77 H 5.363850 -0.533392 -15.833232 0
M  V30 78 H 5.308513 6.803966 -14.086894 0
M  V30 79 H 9.507199 8.120377 -5.661601 0
M  V30 80 H 7.531328 3.850255 -9.793659 0
M  V30 81 H 8.592786 3.627119 -15.798592 0
M  V30 END ATOM
M  V30 BEGIN BOND
M  V30 1 1 2 1
M  V30 2 1 5 1
M  V30 3 1 7 4
M  V30 4 1 9 1
M  V30 5 1 10 9
M  V30 6 1 11 8
M  V30 7 1 13 4
M  V30 8 1 13 6
M  V30 9 1 15 4
M  V30 10 1 16 11
M  V30 11 1 17 14
M  V30 12 1 18 3
M  V30 13 1 19 3
M  V30 14 1 19 8
M  V30 15 1 19 12 CFG=1
M  V30 16 1 19 15
M  V30 17 1 17 20 CFG=1
M  V30 18 1 21 5
M  V30 19 1 21 10
M  V30 20 1 22 12
M  V30 21 1 24 7
M  V30 22 1 24 8
M  V30 23 1 25 17
M  V30 24 1 27 6
M  V30 25 1 27 14
M  V30 26 1 27 23
M  V30 27 1 28 9
M  V30 28 1 28 26
M  V30 29 1 29 11
M  V30 30 1 29 26
M  V30 31 1 30 17
M  V30 32 1 31 23
M  V30 33 1 31 25
M  V30 34 1 32 3
M  V30 35 1 32 7
M  V30 36 1 32 18
M  V30 37 1 33 25
M  V30 38 1 1 34 CFG=3
M  V30 39 1 35 2
M  V30 40 1 36 2
M  V30 41 1 37 2
M  V30 42 1 3 38 CFG=3
M  V30 43 1 4 39 CFG=3
M  V30 44 1 40 5
M  V30 45 1 41 5
M  V30 46 1 42 6
M  V30 47 1 7 43 CFG=3
M  V30 48 1 8 44 CFG=1
M  V30 49 1 45 10
M  V30 50 1 46 10
M  V30 51 1 47 12
M  V30 52 1 48 12
M  V30 53 1 49 13
M  V30 54 1 50 13
M  V30 55 1 51 14
M  V30 56 1 52 14
M  V30 57 1 53 16
M  V30 58 1 54 16
M  V30 59 1 55 16
M  V30 60 1 56 18
M  V30 61 1 57 18
M  V30 62 1 58 21
M  V30 63 1 59 21
M  V30 64 1 60 22
M  V30 65 1 61 22
M  V30 66 1 62 22
M  V30 67 1 63 24
M  V30 68 1 64 24
M  V30 69 1 25 65 CFG=3
M  V30 70 1 66 26
M  V30 71 1 67 26
M  V30 72 1 27 68 CFG=1
M  V30 73 1 69 28
M  V30 74 1 70 28
M  V30 75 1 71 29
M  V30 76 1 72 29
M  V30 77 1 73 30
M  V30 78 1 74 30
M  V30 79 1 75 30
M  V30 80 1 76 31
M  V30 81 1 77 31
M  V30 82 1 32 78 CFG=3
M  V30 83 1 9 79 CFG=1
M  V30 84 1 11 80 CFG=1
M  V30 85 1 81 6
M  V30 END BOND
M  V30 END CTAB
M  END
>  <i_epik_Tot_Q>  (1) 
3

>  <i_epik_Tot_abs_Q>  (1) 
3

>  <i_i_glide_confnum>  (1) 
237

>  <i_i_glide_lignum>  (1) 
136

>  <i_i_glide_posenum>  (1) 
258

>  <i_i_glide_rotatable_bonds>  (1) 
9

>  <i_lp_mmshare_version>  (1) 
72125

>  <i_m_source_file_index>  (1) 
79

>  <i_f3d_flags>  (1) 
0

>  <num_sample>  (1) 
100

>  <b_lp_Chiralities_Consistent>  (1) 
1

>  <r_epik_Charging_Adjusted_Penalty>  (1) 
1.7942086838225126

>  <r_epik_Ionization_Penalty>  (1) 
0.94562311220168549

>  <r_epik_Ionization_Penalty_Charging>  (1) 
0.94562311220168382

>  <r_epik_Ionization_Penalty_Neutral>  (1) 
1.710257484888175e-15

>  <r_epik_State_Penalty>  (1) 
0.84858557162082893

>  <r_glide_ring_energy>  (1) 
0

>  <r_i_docking_score>  (1) 
-3.7766194858890563

>  <r_i_glide_ecoul>  (1) 
-6.0020375177191596

>  <r_i_glide_eff_state_penalty>  (1) 
0.84858557162082893

>  <r_i_glide_einternal>  (1) 
6.6052097925072637

>  <r_i_glide_emodel>  (1) 
-33.844590496002525

>  <r_i_glide_emodel_strain>  (1) 
5.2017821064303718

>  <r_i_glide_energy>  (1) 
-30.994630042345538

>  <r_i_glide_erotb>  (1) 
0.72404097212868179

>  <r_i_glide_esite>  (1) 
-0.044755882442004326

>  <r_i_glide_evdw>  (1) 
-24.992592524626378

>  <r_i_glide_gscore>  (1) 
-4.6252050575098851

>  <r_i_glide_gscore_strain>  (1) 
0.30044552660759294

>  <r_i_glide_hbond>  (1) 
0

>  <r_i_glide_ligand_efficiency>  (1) 
-0.1144430147239108

>  <r_i_glide_ligand_efficiency_ln>  (1) 
-0.83990061937255123

>  <r_i_glide_ligand_efficiency_sa>  (1) 
-0.36707989855516177

>  <r_i_glide_lipo>  (1) 
-1.986279938081648

>  <r_i_glide_metal>  (1) 
-0

>  <r_i_glide_rewards>  (1) 
-1.4687204818333146

>  <r_lp_Energy>  (1) 
78.428286999999997

>  <s_epik_Chemistry_Notes>  (1) 
This compound contains an acetal/aminal-like group ( X-CH(R)-Y where X, Y are N, S, or O) that may be acid/base labile, releasing an aldehyde.

>  <s_epik_cmdline>  (1) 
J2VwaWtfcHl0aG9uJywgJy1waHQnLCAnMS4wJywgJy1waCcsICc3LjQnLCAnLXRuJywgJzgnLCAnLW1hJywgJzUwMCcsICctaW1hZScsICc8aW5maWxlLm1hZT4nLCAnLW9tYWUnLCAnPG91dGZpbGUubWFlPic=

>  <s_epik_input>  (1) 
W0NIM11bQ0BASF0xW0NIMl1bQ0gyXVtDSDJdTjFbQ0gyXVtDSDJdW0NIMl1OKFtDSDNdKVtDQEBIXTJbQ0gyXVtDQEBIXShbQ0BASF0oW0NIMl0zKVtDQEBIXTNbQ0BAXTI0W0NIMl1bQ0gzXSlbQ0BASF0oTzQpW0NIMl1bTkhdW0NASF0oW0NIMl1bQ0BdNShGKVtDSDNdKU9bQ0gyXVtDQEhdNUY=

>  <s_glide_docking_method>  (1) 
confgen

>  <s_i_glide_gridfile>  (1) 
gpcr_drd2_6luq_protein_autoprepared_prepared

>  <s_lp_Force_Field>  (1) 
S-OPLS

>  <s_lp_Variant>  (1) 
DiffSBDD_78-8

>  <s_m_source_file>  (1) 
generated_generic_title2_ligand_DiffSBDD_2026-06-23_prepared.sdf

>  <GenAI_Model>  (1) 
DiffSBDD

>  <Protein>  (1) 
generic_title2

$$$$
DiffSBDD_96
     RDKit          3D

  0  0  0  0  0  0  0  0  0  0999 V3000
M  V30 BEGIN CTAB
M  V30 COUNTS 39 42 0 0 1
M  V30 BEGIN ATOM
M  V30 1 C 7.937526 5.346675 -14.490315 0
M  V30 2 C 9.427470 4.769279 -8.621267 0
M  V30 3 C 10.641192 8.204544 -9.205193 0
M  V30 4 C 10.053016 7.622581 -10.324435 0
M  V30 5 C 10.677140 7.633535 -6.782961 0
M  V30 6 C 9.273395 6.307771 -8.499382 0 CFG=2
M  V30 7 C 9.375410 6.575421 -9.967142 0
M  V30 8 C 6.358674 7.202252 -14.554641 0
M  V30 9 O 5.017370 4.427433 -12.554562 0
M  V30 10 S 6.727033 7.012387 -12.791299 0
M  V30 11 N 8.850811 5.594925 -10.726075 0
M  V30 12 N 10.267244 7.416913 -8.163051 0
M  V30 13 C 6.719880 5.887858 -15.242473 0
M  V30 14 C 8.979174 5.476319 -12.188844 0
M  V30 15 C 8.679584 4.390227 -9.982010 0
M  V30 16 F 10.288116 7.990227 -11.585025 0
M  V30 17 C 7.647317 5.455542 -12.980189 0 CFG=2
M  V30 18 C 5.466360 4.391482 -11.176961 0
M  V30 19 O 11.375409 9.190227 -9.147651 0
M  V30 20 O 6.934889 2.576526 -12.827246 0
M  V30 21 P 6.578324 3.990224 -12.523482 0 CFG=1
M  V30 22 H 8.805326 5.950587 -14.753047 0
M  V30 23 H 8.169739 4.323156 -14.787855 0
M  V30 24 H 8.975410 4.259448 -7.773094 0
M  V30 25 H 10.478656 4.497554 -8.648130 0
M  V30 26 H 11.763699 7.686900 -6.708385 0
M  V30 27 H 10.331450 6.819168 -6.145077 0
M  V30 28 H 10.256443 8.565604 -6.403879 0
M  V30 29 H 8.284929 6.555507 -8.119048 0
M  V30 30 H 5.317114 7.479374 -14.710811 0
M  V30 31 H 6.975427 8.011880 -14.944783 0
M  V30 32 H 5.885989 5.189496 -15.166772 0
M  V30 33 H 6.925742 6.031153 -16.303573 0
M  V30 34 H 9.625540 6.229644 -12.620933 0
M  V30 35 H 9.506869 4.544902 -12.399375 0
M  V30 36 H 7.626375 4.180991 -9.807102 0
M  V30 37 H 9.172118 3.572566 -10.497391 0
M  V30 38 H 4.994096 3.590227 -10.615947 0
M  V30 39 H 5.481704 5.387829 -10.739760 0
M  V30 END ATOM
M  V30 BEGIN BOND
M  V30 1 1 4 3
M  V30 2 1 6 2
M  V30 3 2 7 4
M  V30 4 1 7 6
M  V30 5 1 10 8
M  V30 6 1 11 7
M  V30 7 1 12 3
M  V30 8 1 12 5
M  V30 9 1 12 6
M  V30 10 1 13 1
M  V30 11 1 13 8
M  V30 12 1 14 11
M  V30 13 1 15 2
M  V30 14 1 15 11
M  V30 15 1 16 4
M  V30 16 1 17 1
M  V30 17 1 17 10
M  V30 18 1 17 14 CFG=1
M  V30 19 1 18 9
M  V30 20 2 19 3
M  V30 21 1 21 9 CFG=3
M  V30 22 1 21 17
M  V30 23 1 21 18
M  V30 24 2 21 20
M  V30 25 1 22 1
M  V30 26 1 23 1
M  V30 27 1 24 2
M  V30 28 1 25 2
M  V30 29 1 26 5
M  V30 30 1 27 5
M  V30 31 1 28 5
M  V30 32 1 6 29 CFG=1
M  V30 33 1 30 8
M  V30 34 1 31 8
M  V30 35 1 32 13
M  V30 36 1 33 13
M  V30 37 1 34 14
M  V30 38 1 35 14
M  V30 39 1 36 15
M  V30 40 1 37 15
M  V30 41 1 38 18
M  V30 42 1 39 18
M  V30 END BOND
M  V30 END CTAB
M  END
>  <i_epik_Tot_Q>  (1) 
0

>  <i_epik_Tot_abs_Q>  (1) 
0

>  <i_i_glide_confnum>  (1) 
52

>  <i_i_glide_lignum>  (1) 
184

>  <i_i_glide_posenum>  (1) 
147

>  <i_i_glide_rotatable_bonds>  (1) 
3

>  <i_lp_mmshare_version>  (1) 
72125

>  <i_m_source_file_index>  (1) 
97

>  <i_f3d_flags>  (1) 
0

>  <num_sample>  (1) 
100

>  <b_lp_Chiralities_Consistent>  (1) 
1

>  <r_epik_Charging_Adjusted_Penalty>  (1) 
0

>  <r_epik_Ionization_Penalty>  (1) 
2.3370039309423061e-08

>  <r_epik_Ionization_Penalty_Charging>  (1) 
0

>  <r_epik_Ionization_Penalty_Neutral>  (1) 
2.3370039309423061e-08

>  <r_epik_State_Penalty>  (1) 
-0

>  <r_glide_ring_energy>  (1) 
1.9749283786506009

>  <r_i_docking_score>  (1) 
-3.7745264586679279

>  <r_i_glide_ecoul>  (1) 
-2.0128516382127017

>  <r_i_glide_eff_state_penalty>  (1) 
-0

>  <r_i_glide_einternal>  (1) 
2.3537102334200526

>  <r_i_glide_emodel>  (1) 
-31.658520919854922

>  <r_i_glide_emodel_strain>  (1) 
0.50484767900115912

>  <r_i_glide_energy>  (1) 
-28.187859931656487

>  <r_i_glide_erotb>  (1) 
0.51154997196258456

>  <r_i_glide_esite>  (1) 
-0.10959493571505441

>  <r_i_glide_evdw>  (1) 
-26.175008293443785

>  <r_i_glide_gscore>  (1) 
-3.7745264586679279

>  <r_i_glide_gscore_strain>  (1) 
0

>  <r_i_glide_hbond>  (1) 
0

>  <r_i_glide_ligand_efficiency>  (1) 
-0.17973935517466325

>  <r_i_glide_ligand_efficiency_ln>  (1) 
-0.93324403975677539

>  <r_i_glide_ligand_efficiency_sa>  (1) 
-0.49588725243853155

>  <r_i_glide_lipo>  (1) 
-0.88097446329924167

>  <r_i_glide_metal>  (1) 
-0

>  <r_i_glide_rewards>  (1) 
-1.684828871212122

>  <r_lp_Energy>  (1) 
19.645654999999998

>  <r_lp_tautomer_probability>  (1) 
1

>  <s_epik_cmdline>  (1) 
J2VwaWtfcHl0aG9uJywgJy1waHQnLCAnMS4wJywgJy1waCcsICc3LjQnLCAnLXRuJywgJzgnLCAnLW1hJywgJzUwMCcsICctaW1hZScsICc8aW5maWxlLm1hZT4nLCAnLW9tYWUnLCAnPG91dGZpbGUubWFlPic=

>  <s_epik_input>  (1) 
UzFbQ0gyXVtDSDJdW0NIMl1bQ0BAXTEoW1BAXTIoPU8pT1tDSDJdMilbQ0gyXU4oW0NIMl1bQ0gyXTMpQyhbQ0BASF0zNCk9QyhGKUMoPU8pTjRbQ0gzXQ==

>  <s_glide_docking_method>  (1) 
confgen

>  <s_i_glide_gridfile>  (1) 
gpcr_drd2_6luq_protein_autoprepared_prepared

>  <s_lp_Force_Field>  (1) 
S-OPLS

>  <s_lp_Variant>  (1) 
DiffSBDD_96-1

>  <s_m_source_file>  (1) 
generated_generic_title2_ligand_DiffSBDD_2026-06-23_prepared.sdf

>  <GenAI_Model>  (1) 
DiffSBDD

>  <Protein>  (1) 
generic_title2

$$$$
DiffSBDD_96
     RDKit          3D

  0  0  0  0  0  0  0  0  0  0999 V3000
M  V30 BEGIN CTAB
M  V30 COUNTS 39 42 0 0 1
M  V30 BEGIN ATOM
M  V30 1 C 7.834745 5.493629 -15.045351 0
M  V30 2 C 9.173537 4.528664 -9.108468 0
M  V30 3 C 10.703082 7.851707 -9.676868 0
M  V30 4 C 10.162208 7.282122 -10.829101 0
M  V30 5 C 10.518608 7.338474 -7.248052 0
M  V30 6 C 9.155029 6.074791 -9.041388 0 CFG=2
M  V30 7 C 9.375410 6.297335 -10.501371 0
M  V30 8 C 6.335575 7.387342 -14.698140 0
M  V30 9 O 7.272017 2.558384 -12.785040 0
M  V30 10 S 6.718423 6.835049 -13.017030 0
M  V30 11 N 8.826176 5.336434 -11.273866 0
M  V30 12 N 10.200134 7.115422 -8.651555 0
M  V30 13 C 6.616177 6.213604 -15.630478 0
M  V30 14 C 8.952369 5.208913 -12.738443 0
M  V30 15 C 8.503272 4.161482 -10.522684 0
M  V30 16 F 10.535742 7.590099 -12.076055 0
M  V30 17 C 7.613102 5.333411 -13.523146 0 CFG=2
M  V30 18 C 7.102322 2.481991 -14.203980 0
M  V30 19 O 11.492723 8.790455 -9.580942 0
M  V30 20 O 4.975497 3.990219 -13.185004 0
M  V30 21 P 6.460380 3.884222 -13.256167 0 CFG=1
M  V30 22 H 8.725222 6.082008 -15.239271 0
M  V30 23 H 8.006168 4.550368 -15.558135 0
M  V30 24 H 8.631476 4.120990 -8.254416 0
M  V30 25 H 10.175398 4.132653 -9.055826 0
M  V30 26 H 11.584415 7.194308 -7.068712 0
M  V30 27 H 9.968978 6.645708 -6.609510 0
M  V30 28 H 10.251625 8.354187 -6.954102 0
M  V30 29 H 8.175415 6.390218 -8.715119 0
M  V30 30 H 5.306851 7.740089 -14.773061 0
M  V30 31 H 6.991659 8.223683 -14.940463 0
M  V30 32 H 5.755262 5.544882 -15.646455 0
M  V30 33 H 6.787307 6.544153 -16.655393 0
M  V30 34 H 9.664628 5.914194 -13.149318 0
M  V30 35 H 9.395139 4.236233 -12.956660 0
M  V30 36 H 7.422681 4.037471 -10.445259 0
M  V30 37 H 8.975231 3.279943 -10.963080 0
M  V30 38 H 6.441046 1.654410 -14.451699 0
M  V30 39 H 8.083506 2.513455 -14.671510 0
M  V30 END ATOM
M  V30 BEGIN BOND
M  V30 1 1 4 3
M  V30 2 1 6 2
M  V30 3 2 7 4
M  V30 4 1 7 6
M  V30 5 1 10 8
M  V30 6 1 11 7
M  V30 7 1 12 3
M  V30 8 1 12 5
M  V30 9 1 12 6
M  V30 10 1 13 1
M  V30 11 1 13 8
M  V30 12 1 14 11
M  V30 13 1 15 2
M  V30 14 1 15 11
M  V30 15 1 16 4
M  V30 16 1 17 1
M  V30 17 1 17 10
M  V30 18 1 17 14 CFG=1
M  V30 19 1 18 9
M  V30 20 2 19 3
M  V30 21 1 21 9 CFG=1
M  V30 22 1 21 17
M  V30 23 1 21 18
M  V30 24 2 21 20
M  V30 25 1 22 1
M  V30 26 1 23 1
M  V30 27 1 24 2
M  V30 28 1 25 2
M  V30 29 1 26 5
M  V30 30 1 27 5
M  V30 31 1 28 5
M  V30 32 1 6 29 CFG=1
M  V30 33 1 30 8
M  V30 34 1 31 8
M  V30 35 1 32 13
M  V30 36 1 33 13
M  V30 37 1 34 14
M  V30 38 1 35 14
M  V30 39 1 36 15
M  V30 40 1 37 15
M  V30 41 1 38 18
M  V30 42 1 39 18
M  V30 END BOND
M  V30 END CTAB
M  END
>  <i_epik_Tot_Q>  (1) 
0

>  <i_epik_Tot_abs_Q>  (1) 
0

>  <i_i_glide_confnum>  (1) 
3

>  <i_i_glide_lignum>  (1) 
184

>  <i_i_glide_posenum>  (1) 
132

>  <i_i_glide_rotatable_bonds>  (1) 
3

>  <i_lp_mmshare_version>  (1) 
72125

>  <i_m_source_file_index>  (1) 
97

>  <i_f3d_flags>  (1) 
0

>  <num_sample>  (1) 
100

>  <b_lp_Chiralities_Consistent>  (1) 
1

>  <r_epik_Charging_Adjusted_Penalty>  (1) 
0

>  <r_epik_Ionization_Penalty>  (1) 
2.3370039309423061e-08

>  <r_epik_Ionization_Penalty_Charging>  (1) 
0

>  <r_epik_Ionization_Penalty_Neutral>  (1) 
2.3370039309423061e-08

>  <r_epik_State_Penalty>  (1) 
-0

>  <r_glide_ring_energy>  (1) 
1.2780340719072554

>  <r_i_docking_score>  (1) 
-3.7732275012032419

>  <r_i_glide_ecoul>  (1) 
-1.9457091741779344

>  <r_i_glide_eff_state_penalty>  (1) 
-0

>  <r_i_glide_einternal>  (1) 
2.608159032467392

>  <r_i_glide_emodel>  (1) 
-29.529009083392477

>  <r_i_glide_emodel_strain>  (1) 
0.20767892477688576

>  <r_i_glide_energy>  (1) 
-25.890176863949097

>  <r_i_glide_erotb>  (1) 
0.51154997196258456

>  <r_i_glide_esite>  (1) 
-0.074293468197214482

>  <r_i_glide_evdw>  (1) 
-23.944467689771162

>  <r_i_glide_gscore>  (1) 
-3.7732275012032419

>  <r_i_glide_gscore_strain>  (1) 
0

>  <r_i_glide_hbond>  (1) 
0

>  <r_i_glide_ligand_efficiency>  (1) 
-0.17967750005729724

>  <r_i_glide_ligand_efficiency_ln>  (1) 
-0.93292287514842254

>  <r_i_glide_ligand_efficiency_sa>  (1) 
-0.49571659885979757

>  <r_i_glide_lipo>  (1) 
-1.0921221863649344

>  <r_i_glide_metal>  (1) 
-0

>  <r_i_glide_rewards>  (1) 
-1.6292820579884286

>  <r_lp_Energy>  (1) 
19.645654999999998

>  <r_lp_tautomer_probability>  (1) 
1

>  <s_epik_cmdline>  (1) 
J2VwaWtfcHl0aG9uJywgJy1waHQnLCAnMS4wJywgJy1waCcsICc3LjQnLCAnLXRuJywgJzgnLCAnLW1hJywgJzUwMCcsICctaW1hZScsICc8aW5maWxlLm1hZT4nLCAnLW9tYWUnLCAnPG91dGZpbGUubWFlPic=

>  <s_epik_input>  (1) 
UzFbQ0gyXVtDSDJdW0NIMl1bQ0BAXTEoW1BAXTIoPU8pT1tDSDJdMilbQ0gyXU4oW0NIMl1bQ0gyXTMpQyhbQ0BASF0zNCk9QyhGKUMoPU8pTjRbQ0gzXQ==

>  <s_glide_docking_method>  (1) 
confgen

>  <s_i_glide_gridfile>  (1) 
gpcr_drd2_6luq_protein_autoprepared_prepared

>  <s_lp_Force_Field>  (1) 
S-OPLS

>  <s_lp_Variant>  (1) 
DiffSBDD_96-1

>  <s_m_source_file>  (1) 
generated_generic_title2_ligand_DiffSBDD_2026-06-23_prepared.sdf

>  <GenAI_Model>  (1) 
DiffSBDD

>  <Protein>  (1) 
generic_title2

$$$$
DiffSBDD_80
     RDKit          3D

  0  0  0  0  0  0  0  0  0  0999 V3000
M  V30 BEGIN CTAB
M  V30 COUNTS 80 86 0 0 1
M  V30 BEGIN ATOM
M  V30 1 C 6.544082 0.009948 -18.098249 0
M  V30 2 C 8.684290 5.736718 -10.140042 0
M  V30 3 C 7.194169 3.824751 -16.246964 0
M  V30 4 O 9.853799 7.476763 -11.336514 0
M  V30 5 N 5.663914 -4.579112 -17.583993 0 CHG=1
M  V30 6 C 6.757548 6.341973 -17.329253 0
M  V30 7 C 6.975483 3.946369 -17.638488 0
M  V30 8 C 9.248776 6.407708 -11.394910 0
M  V30 9 C 5.990779 2.675998 -19.588101 0
M  V30 10 C 7.831391 -4.387220 -19.380723 0 CFG=2
M  V30 11 C 5.430636 -5.294520 -18.844868 0 CFG=2
M  V30 12 C 7.576243 5.219434 -12.911247 0 CFG=1
M  V30 13 C 7.720682 -1.856363 -19.494563 0 CFG=2
M  V30 14 O 9.002708 -0.494915 -18.025691 0
M  V30 15 C 7.151870 4.401996 -11.674206 0
M  V30 16 C 9.039640 5.682284 -12.723030 0
M  V30 17 N 7.356011 2.748134 -15.483438 0
M  V30 18 O 5.473911 -1.814528 -20.572306 0
M  V30 19 C 6.171888 -3.204635 -17.777367 0
M  V30 20 C 6.768677 5.224488 -18.184620 0
M  V30 21 O 8.564741 -3.086445 -17.595404 0
M  V30 22 C 6.524156 1.407728 -17.438055 0 CFG=2
M  V30 23 C 8.495535 0.627880 -15.970353 0
M  V30 24 C 6.929666 2.597268 -18.363359 0 CFG=2
M  V30 25 C 6.975330 6.173561 -15.936657 0
M  V30 26 O 5.055308 -6.481283 -18.458530 0 CHG=-1
M  V30 27 C 7.442401 4.399050 -14.182788 0
M  V30 28 C 7.530906 -3.123917 -18.562759 0 CFG=1
M  V30 29 C 7.211664 4.859167 -15.472248 0
M  V30 30 N 7.577456 3.046612 -14.081357 0
M  V30 31 C 6.222654 0.664069 -15.000177 0
M  V30 32 C 7.260724 5.190000 -10.370804 0
M  V30 33 C 6.759542 -5.441178 -19.554230 0 CFG=2
M  V30 34 C 7.829292 -0.439816 -18.833054 0 CFG=2
M  V30 35 C 7.170130 1.394336 -16.019775 0 CFG=1
M  V30 36 C 6.918962 7.376946 -15.005793 0
M  V30 37 O 7.877585 -5.636897 -18.679457 0
M  V30 38 C 6.868135 -1.858180 -20.794899 0
M  V30 39 C 9.367883 0.625915 -17.237637 0
M  V30 40 H 5.705817 -0.037046 -18.789403 0
M  V30 41 H 6.309681 -0.711438 -17.329967 0
M  V30 42 H 9.354962 4.922073 -9.868790 0
M  V30 43 H 9.706747 4.819726 -12.737591 0
M  V30 44 H 8.688637 6.437767 -9.305182 0
M  V30 45 H 6.361253 -5.116693 -17.089859 0
M  V30 46 H 6.572573 7.324946 -17.732026 0
M  V30 47 H 6.322451 3.426197 -20.304545 0
M  V30 48 H 5.946823 1.739001 -20.139358 0
M  V30 49 H 4.976285 2.932095 -19.283828 0
M  V30 50 H 8.609851 -4.307332 -20.135729 0
M  V30 51 H 4.798487 -4.668387 -19.474678 0
M  V30 52 H 6.901186 6.067628 -12.907179 0
M  V30 53 H 8.727220 -1.986163 -19.896965 0
M  V30 54 H 6.145975 3.996129 -11.793289 0
M  V30 55 H 7.846668 3.576478 -11.585265 0
M  V30 56 H 9.355472 6.327170 -13.537629 0
M  V30 57 H 5.034996 -1.554489 -21.372176 0
M  V30 58 H 6.258408 -2.764368 -16.785603 0
M  V30 59 H 5.381728 -2.649268 -18.275620 0
M  V30 60 H 6.589698 5.347240 -19.241541 0
M  V30 61 H 8.622512 -2.207218 -17.245270 0
M  V30 62 H 5.468355 1.589746 -17.236032 0
M  V30 63 H 8.330772 -0.419930 -15.715477 0
M  V30 64 H 8.975382 1.043682 -15.095824 0
M  V30 65 H 7.916796 2.455722 -18.783324 0
M  V30 66 H 5.521723 -0.026046 -15.468506 0
M  V30 67 H 6.778016 0.087466 -14.258794 0
M  V30 68 H 5.622239 1.337022 -14.386960 0
M  V30 69 H 6.982008 4.545468 -9.538981 0
M  V30 70 H 6.524372 5.990325 -10.385341 0
M  V30 71 H 6.773148 -6.045078 -20.459739 0
M  V30 72 H 8.037133 0.281300 -19.623781 0
M  V30 73 H 6.869453 8.298751 -15.586254 0
M  V30 74 H 6.001807 7.354977 -14.413979 0
M  V30 75 H 7.775715 7.477836 -14.353454 0
M  V30 76 H 7.086051 -2.740028 -21.398331 0
M  V30 77 H 7.142016 -1.002444 -21.414050 0
M  V30 78 H 10.409739 0.448986 -16.996449 0
M  V30 79 H 9.403414 1.568381 -17.767521 0
M  V30 80 H 4.815058 -4.574265 -17.032228 0
M  V30 END ATOM
M  V30 BEGIN BOND
M  V30 1 2 7 3
M  V30 2 1 8 2
M  V30 3 2 8 4
M  V30 4 1 11 5
M  V30 5 1 15 12
M  V30 6 1 16 8
M  V30 7 1 16 12
M  V30 8 1 17 3
M  V30 9 1 19 5
M  V30 10 2 20 6
M  V30 11 1 20 7
M  V30 12 1 22 1
M  V30 13 1 24 7
M  V30 14 1 24 9
M  V30 15 1 24 22
M  V30 16 1 25 6
M  V30 17 1 26 11
M  V30 18 1 27 12
M  V30 19 1 28 10
M  V30 20 1 28 13
M  V30 21 1 28 19
M  V30 22 1 28 21 CFG=1
M  V30 23 1 29 3
M  V30 24 2 29 25
M  V30 25 1 29 27
M  V30 26 1 30 17
M  V30 27 2 30 27
M  V30 28 1 32 2
M  V30 29 1 32 15
M  V30 30 1 33 10
M  V30 31 1 33 11
M  V30 32 1 34 1
M  V30 33 1 34 13
M  V30 34 1 34 14
M  V30 35 1 35 17
M  V30 36 1 35 22
M  V30 37 1 35 23
M  V30 38 1 35 31 CFG=1
M  V30 39 1 36 25
M  V30 40 1 37 10
M  V30 41 1 37 33
M  V30 42 1 38 13
M  V30 43 1 38 18
M  V30 44 1 39 14
M  V30 45 1 39 23
M  V30 46 1 40 1
M  V30 47 1 41 1
M  V30 48 1 42 2
M  V30 49 1 43 16
M  V30 50 1 44 2
M  V30 51 1 45 5
M  V30 52 1 46 6
M  V30 53 1 47 9
M  V30 54 1 48 9
M  V30 55 1 49 9
M  V30 56 1 10 50 CFG=3
M  V30 57 1 11 51 CFG=3
M  V30 58 1 12 52 CFG=3
M  V30 59 1 13 53 CFG=3
M  V30 60 1 54 15
M  V30 61 1 55 15
M  V30 62 1 56 16
M  V30 63 1 57 18
M  V30 64 1 58 19
M  V30 65 1 59 19
M  V30 66 1 60 20
M  V30 67 1 61 21
M  V30 68 1 22 62 CFG=1
M  V30 69 1 63 23
M  V30 70 1 64 23
M  V30 71 1 24 65 CFG=3
M  V30 72 1 66 31
M  V30 73 1 67 31
M  V30 74 1 68 31
M  V30 75 1 69 32
M  V30 76 1 70 32
M  V30 77 1 33 71 CFG=3
M  V30 78 1 34 72 CFG=3
M  V30 79 1 73 36
M  V30 80 1 74 36
M  V30 81 1 75 36
M  V30 82 1 76 38
M  V30 83 1 77 38
M  V30 84 1 78 39
M  V30 85 1 79 39
M  V30 86 1 80 5
M  V30 END BOND
M  V30 END CTAB
M  END
>  <i_epik_Tot_Q>  (1) 
0

>  <i_epik_Tot_abs_Q>  (1) 
2

>  <i_i_glide_confnum>  (1) 
157

>  <i_i_glide_lignum>  (1) 
140

>  <i_i_glide_posenum>  (1) 
386

>  <i_i_glide_rotatable_bonds>  (1) 
6

>  <i_lp_mmshare_version>  (1) 
72125

>  <i_m_source_file_index>  (1) 
81

>  <i_f3d_flags>  (1) 
0

>  <num_sample>  (1) 
100

>  <b_lp_Chiralities_Consistent>  (1) 
1

>  <r_epik_Charging_Adjusted_Penalty>  (1) 
0.19389291401224384

>  <r_epik_Ionization_Penalty>  (1) 
0.092004943806736766

>  <r_epik_Ionization_Penalty_Charging>  (1) 
0.091964506543683239

>  <r_epik_Ionization_Penalty_Neutral>  (1) 
4.0437263053531681e-05

>  <r_epik_State_Penalty>  (1) 
0.10192840746856062

>  <r_glide_ring_energy>  (1) 
0

>  <r_i_docking_score>  (1) 
-3.7630026078920653

>  <r_i_glide_ecoul>  (1) 
-4.6114539010094981

>  <r_i_glide_eff_state_penalty>  (1) 
0.10192840746856062

>  <r_i_glide_einternal>  (1) 
28.032818127088955

>  <r_i_glide_emodel>  (1) 
-13.712678566500458

>  <r_i_glide_emodel_strain>  (1) 
3.0230233828520454

>  <r_i_glide_energy>  (1) 
-27.189539587336739

>  <r_i_glide_erotb>  (1) 
0.28387705293314092

>  <r_i_glide_esite>  (1) 
-0.11404420382170898

>  <r_i_glide_evdw>  (1) 
-22.578085686327242

>  <r_i_glide_gscore>  (1) 
-3.864931015360626

>  <r_i_glide_gscore_strain>  (1) 
0

>  <r_i_glide_hbond>  (1) 
-0.1331608723076626

>  <r_i_glide_ligand_efficiency>  (1) 
-0.096487246356206799

>  <r_i_glide_ligand_efficiency_ln>  (1) 
-0.80689457831334399

>  <r_i_glide_ligand_efficiency_sa>  (1) 
-0.32720865394809551

>  <r_i_glide_lipo>  (1) 
-1.664450745920526

>  <r_i_glide_metal>  (1) 
-0

>  <r_i_glide_rewards>  (1) 
-0.41652987677608228

>  <r_lp_Energy>  (1) 
35.890972999999995

>  <r_lp_tautomer_probability>  (1) 
0.99999997999999979

>  <s_epik_Chemistry_Notes>  (1) 
This compound contains an acetal/aminal-like group ( X-CH(R)-Y where X, Y are N, S, or O) that may be acid/base labile, releasing an aldehyde.

>  <s_epik_cmdline>  (1) 
J2VwaWtfcHl0aG9uJywgJy1waHQnLCAnMS4wJywgJy1waCcsICc3LjQnLCAnLXRuJywgJzgnLCAnLW1hJywgJzUwMCcsICctaW1hZScsICc8aW5maWxlLm1hZT4nLCAnLW9tYWUnLCAnPG91dGZpbGUubWFlPic=

>  <s_epik_input>  (1) 
W0NASF0xMltDQEBIXShPMilbQ0BASF0oW09IXSlbTkhdW0NIMl1bQ0BdMShbT0hdKVtDQEBIXShbQ0gyXVtPSF0pW0NASF0oT1tDSDJdW0NIMl0zKVtDSDJdW0NAQEhdNFtDQEBIXShbQ0gzXSljKGM1bjZbQ0BdMzRbQ0gzXSlbY0hdW2NIXWMoW0NIM10pYzVjKG42KVtDQEhdKFtDSDJdW0NIMl1bQ0gyXTcpW0NIXT1DN1tPSF0=

>  <s_glide_docking_method>  (1) 
confgen

>  <s_i_glide_gridfile>  (1) 
gpcr_drd2_6luq_protein_autoprepared_prepared

>  <s_lp_Force_Field>  (1) 
S-OPLS

>  <s_lp_Variant>  (1) 
DiffSBDD_80-2

>  <s_m_source_file>  (1) 
generated_generic_title2_ligand_DiffSBDD_2026-06-23_prepared.sdf

>  <GenAI_Model>  (1) 
DiffSBDD

>  <Protein>  (1) 
generic_title2

$$$$
DiffSBDD_93
     RDKit          3D

  0  0  0  0  0  0  0  0  0  0999 V3000
M  V30 BEGIN CTAB
M  V30 COUNTS 69 73 0 0 1
M  V30 BEGIN ATOM
M  V30 1 C 7.895230 5.198396 -12.073656 0 CFG=1
M  V30 2 C 4.977325 7.982026 -19.657660 0
M  V30 3 C 10.397294 7.530259 -8.748193 0
M  V30 4 O 6.398887 9.477332 -23.884249 0
M  V30 5 C 7.032830 3.484914 -13.832106 0
M  V30 6 C 7.467098 2.820515 -15.159942 0
M  V30 7 C 7.089492 7.823475 -21.536227 0
M  V30 8 C 7.112011 7.640462 -12.687871 0
M  V30 9 N 8.027689 4.485167 -13.371170 0 CFG=1 CHG=1
M  V30 10 C 7.189955 7.109515 -20.315375 0
M  V30 11 C 4.937534 8.664254 -20.878718 0
M  V30 12 C 8.734307 5.253873 -8.664096 0
M  V30 13 C 9.062380 4.780730 -11.152575 0 CFG=1
M  V30 14 C 5.664217 9.360392 -22.908234 0
M  V30 15 C 10.168757 6.790376 -9.925080 0
M  V30 16 C 7.748863 8.790195 -11.928136 0
M  V30 17 O 10.175408 4.602473 -11.985026 0
M  V30 18 C 8.090025 6.502457 -12.853009 0 CFG=2
M  V30 19 C 6.119883 7.190228 -19.359262 0
M  V30 20 C 5.936576 8.584915 -21.758021 0
M  V30 21 C 9.803364 7.135377 -7.537739 0
M  V30 22 N 4.459690 9.924746 -22.706353 0
M  V30 23 C 3.779724 9.570518 -21.360591 0
M  V30 24 C 7.389890 5.752499 -17.815164 0
M  V30 25 N 6.182752 6.511816 -18.131550 0
M  V30 26 C 8.162251 5.722319 -14.148172 0 CFG=2
M  V30 27 C 7.191529 5.053627 -16.458676 0 CFG=2
M  V30 28 C 9.326174 5.633555 -9.887408 0
M  V30 29 C 7.133256 5.993894 -15.243423 0
M  V30 30 O 10.764056 7.190255 -11.086306 0
M  V30 31 C 6.552455 4.929833 -11.364395 0
M  V30 32 C 8.017705 3.764362 -16.259800 0
M  V30 33 C 8.975391 6.001189 -7.496068 0
M  V30 34 H 4.159693 8.059416 -18.955881 0
M  V30 35 H 11.033180 8.402964 -8.774150 0
M  V30 36 H 6.046021 3.932232 -13.940717 0
M  V30 37 H 6.929254 2.710050 -13.071643 0
M  V30 38 H 8.215796 2.057300 -14.950189 0
M  V30 39 H 6.610742 2.274785 -15.556967 0
M  V30 40 H 7.880209 7.781258 -22.272227 0
M  V30 41 H 6.203320 7.340448 -12.170069 0
M  V30 42 H 6.790273 7.990224 -13.661981 0
M  V30 43 H 8.067491 6.515241 -20.113061 0
M  V30 44 H 8.092587 4.390191 -8.621775 0
M  V30 45 H 8.867183 3.772991 -10.787121 0
M  V30 46 H 6.975404 9.478135 -11.584903 0
M  V30 47 H 8.478087 9.304224 -12.552727 0
M  V30 48 H 8.281793 8.444822 -11.048449 0
M  V30 49 H 10.919921 4.365217 -11.453246 0
M  V30 50 H 9.099469 6.878419 -12.734161 0
M  V30 51 H 9.981210 7.705763 -6.637928 0
M  V30 52 H 4.017022 10.530758 -23.380400 0
M  V30 53 H 2.853547 9.017412 -21.500720 0
M  V30 54 H 3.632564 10.438128 -20.719182 0
M  V30 55 H 7.532609 4.996634 -18.588288 0
M  V30 56 H 8.273845 6.390011 -17.808070 0
M  V30 57 H 5.446407 6.603354 -17.446993 0
M  V30 58 H 9.178374 5.741630 -14.541752 0
M  V30 59 H 6.175407 4.753378 -16.529871 0
M  V30 60 H 6.125765 5.984054 -14.823676 0
M  V30 61 H 7.254314 7.018851 -15.585003 0
M  V30 62 H 11.234071 8.003353 -10.991501 0
M  V30 63 H 6.444430 5.560184 -10.479882 0
M  V30 64 H 6.465115 3.897884 -11.023915 0
M  V30 65 H 5.691871 5.135468 -12.000646 0
M  V30 66 H 9.060738 4.013662 -16.062765 0
M  V30 67 H 8.037213 3.201700 -17.193383 0
M  V30 68 H 8.516234 5.707034 -6.565246 0
M  V30 69 H 8.948394 4.061587 -13.315404 0
M  V30 END ATOM
M  V30 BEGIN BOND
M  V30 1 1 6 5
M  V30 2 1 9 1
M  V30 3 1 9 5
M  V30 4 2 10 7
M  V30 5 1 11 2
M  V30 6 1 13 1
M  V30 7 2 14 4
M  V30 8 2 15 3
M  V30 9 1 16 8
M  V30 10 1 17 13
M  V30 11 1 18 1
M  V30 12 1 18 8
M  V30 13 2 19 2
M  V30 14 1 19 10
M  V30 15 1 20 7
M  V30 16 2 20 11
M  V30 17 1 20 14
M  V30 18 1 21 3
M  V30 19 1 22 14
M  V30 20 1 23 11
M  V30 21 1 23 22
M  V30 22 1 25 19
M  V30 23 1 25 24
M  V30 24 1 26 9
M  V30 25 1 26 18
M  V30 26 1 27 24
M  V30 27 2 28 12
M  V30 28 1 28 13
M  V30 29 1 28 15
M  V30 30 1 29 26
M  V30 31 1 29 27
M  V30 32 1 30 15
M  V30 33 1 1 31 CFG=1
M  V30 34 1 32 6
M  V30 35 1 32 27
M  V30 36 1 33 12
M  V30 37 2 33 21
M  V30 38 1 34 2
M  V30 39 1 35 3
M  V30 40 1 36 5
M  V30 41 1 37 5
M  V30 42 1 38 6
M  V30 43 1 39 6
M  V30 44 1 40 7
M  V30 45 1 41 8
M  V30 46 1 42 8
M  V30 47 1 43 10
M  V30 48 1 44 12
M  V30 49 1 13 45 CFG=1
M  V30 50 1 46 16
M  V30 51 1 47 16
M  V30 52 1 48 16
M  V30 53 1 49 17
M  V30 54 1 18 50 CFG=1
M  V30 55 1 51 21
M  V30 56 1 52 22
M  V30 57 1 53 23
M  V30 58 1 54 23
M  V30 59 1 55 24
M  V30 60 1 56 24
M  V30 61 1 57 25
M  V30 62 1 26 58 CFG=3
M  V30 63 1 27 59 CFG=3
M  V30 64 1 60 29
M  V30 65 1 61 29
M  V30 66 1 62 30
M  V30 67 1 63 31
M  V30 68 1 64 31
M  V30 69 1 65 31
M  V30 70 1 66 32
M  V30 71 1 67 32
M  V30 72 1 68 33
M  V30 73 1 9 69 CFG=1
M  V30 END BOND
M  V30 END CTAB
M  END
>  <i_epik_Tot_Q>  (1) 
1

>  <i_epik_Tot_abs_Q>  (1) 
1

>  <i_i_glide_confnum>  (1) 
133

>  <i_i_glide_lignum>  (1) 
176

>  <i_i_glide_posenum>  (1) 
216

>  <i_i_glide_rotatable_bonds>  (1) 
8

>  <i_lp_mmshare_version>  (1) 
72125

>  <i_m_source_file_index>  (1) 
94

>  <i_f3d_flags>  (1) 
0

>  <num_sample>  (1) 
100

>  <b_lp_Chiralities_Consistent>  (1) 
1

>  <r_epik_Charging_Adjusted_Penalty>  (1) 
0.009895405337619817

>  <r_epik_Ionization_Penalty>  (1) 
0.010018489252536679

>  <r_epik_Ionization_Penalty_Charging>  (1) 
0.00060073207358730301

>  <r_epik_Ionization_Penalty_Neutral>  (1) 
0.0094177571789493767

>  <r_epik_State_Penalty>  (1) 
0.0092946732640325144

>  <r_glide_ring_energy>  (1) 
0

>  <r_i_docking_score>  (1) 
-3.7571909084287021

>  <r_i_glide_ecoul>  (1) 
1.0008506019985535

>  <r_i_glide_eff_state_penalty>  (1) 
0.0092946732640325144

>  <r_i_glide_einternal>  (1) 
9.065166948570381

>  <r_i_glide_emodel>  (1) 
-20.854970252144629

>  <r_i_glide_emodel_strain>  (1) 
3.7495431003378883

>  <r_i_glide_energy>  (1) 
-28.156280521581163

>  <r_i_glide_erotb>  (1) 
0.49373930985115227

>  <r_i_glide_esite>  (1) 
0

>  <r_i_glide_evdw>  (1) 
-29.157131123579717

>  <r_i_glide_gscore>  (1) 
-3.7664855816927347

>  <r_i_glide_gscore_strain>  (1) 
0

>  <r_i_glide_hbond>  (1) 
0

>  <r_i_glide_ligand_efficiency>  (1) 
-0.11385426995238491

>  <r_i_glide_ligand_efficiency_ln>  (1) 
-0.83557980434115875

>  <r_i_glide_ligand_efficiency_sa>  (1) 
-0.36519147948888692

>  <r_i_glide_lipo>  (1) 
-2.0282844281921122

>  <r_i_glide_metal>  (1) 
-0

>  <r_i_glide_rewards>  (1) 
-0.92421149747257147

>  <r_lp_Energy>  (1) 
50.168202999999998

>  <r_lp_tautomer_probability>  (1) 
0.99999999999736477

>  <s_epik_cmdline>  (1) 
J2VwaWtfcHl0aG9uJywgJy1waHQnLCAnMS4wJywgJy1waCcsICc3LjQnLCAnLXRuJywgJzgnLCAnLW1hJywgJzUwMCcsICctaW1hZScsICc8aW5maWxlLm1hZT4nLCAnLW9tYWUnLCAnPG91dGZpbGUubWFlPic=

>  <s_epik_input>  (1) 
W09IXWMxW2NIXVtjSF1bY0hdW2NIXWMxW0NASF0oW09IXSlbQ0BAXTIoW0NIM10pW0NASF0oW0NIMl1bQ0gzXSlbQ0BASF0oTjIzKVtDSDJdW0NASF0oW0NIMl1bQ0gyXVtDSDJdMylbQ0gyXVtOSF1jKFtjSF00KVtjSF1bY0hdYyhjNDUpQyg9TylbTkhdW0NIMl01

>  <s_glide_docking_method>  (1) 
confgen

>  <s_i_glide_gridfile>  (1) 
gpcr_drd2_6luq_protein_autoprepared_prepared

>  <s_lp_Force_Field>  (1) 
S-OPLS

>  <s_lp_Variant>  (1) 
DiffSBDD_93-1

>  <s_m_source_file>  (1) 
generated_generic_title2_ligand_DiffSBDD_2026-06-23_prepared.sdf

>  <GenAI_Model>  (1) 
DiffSBDD

>  <Protein>  (1) 
generic_title2

$$$$
DiffSBDD_30
     RDKit          3D

  0  0  0  0  0  0  0  0  0  0999 V3000
M  V30 BEGIN CTAB
M  V30 COUNTS 40 40 0 0 1
M  V30 BEGIN ATOM
M  V30 1 C 11.988727 8.800856 -4.488624 0
M  V30 2 C 11.116364 7.654078 -9.317479 0
M  V30 3 C 12.550916 8.650702 -7.595974 0
M  V30 4 N 7.080146 5.590212 -10.444791 0 CHG=1
M  V30 5 C 12.561583 9.011401 -3.220550 0
M  V30 6 C 6.344889 6.319619 -12.676682 0
M  V30 7 C 11.652521 9.593165 -6.767679 0
M  V30 8 N 12.083078 8.518225 -8.970745 0
M  V30 9 C 7.538508 5.896105 -11.808378 0 CFG=1
M  V30 10 O 10.546028 6.923203 -8.504090 0
M  V30 11 C 12.543116 7.990242 -2.255388 0
M  V30 12 C 11.375410 7.556275 -4.784889 0
M  V30 13 C 8.591599 7.014142 -11.734833 0
M  V30 14 C 10.739122 7.602762 -10.797283 0
M  V30 15 C 11.955536 6.749838 -2.556358 0
M  V30 16 C 11.375361 6.533766 -3.821026 0
M  V30 17 O 12.044749 9.809468 -5.421707 0
M  V30 18 N 9.775940 6.527508 -11.043331 0
M  V30 19 H 13.577063 9.016821 -7.600295 0
M  V30 20 H 12.575364 7.646347 -7.185044 0
M  V30 21 H 6.974859 6.512596 -9.978478 0
M  V30 22 H 6.196994 5.102313 -10.441388 0
M  V30 23 H 13.016994 9.960168 -2.990507 0
M  V30 24 H 6.663880 6.544828 -13.694972 0
M  V30 25 H 5.595432 5.529159 -12.736682 0
M  V30 26 H 5.857881 7.211796 -12.278656 0
M  V30 27 H 10.595646 9.328117 -6.820114 0
M  V30 28 H 11.775399 10.586931 -7.187088 0
M  V30 29 H 12.515330 9.095039 -9.679316 0
M  V30 30 H 7.977368 4.993977 -12.238855 0
M  V30 31 H 12.983150 8.158694 -1.283822 0
M  V30 32 H 10.921355 7.380480 -5.747580 0
M  V30 33 H 8.179052 7.876477 -11.204734 0
M  V30 34 H 8.873831 7.347044 -12.735001 0
M  V30 35 H 10.328953 8.571104 -11.074868 0
M  V30 36 H 11.629425 7.433264 -11.403623 0
M  V30 37 H 11.943935 5.962962 -1.816003 0
M  V30 38 H 10.917738 5.589939 -4.047936 0
M  V30 39 H 9.514895 6.160669 -10.136323 0
M  V30 40 H 7.775451 5.057565 -9.946591 0
M  V30 END ATOM
M  V30 BEGIN BOND
M  V30 1 2 5 1
M  V30 2 1 7 3
M  V30 3 1 8 2
M  V30 4 1 8 3
M  V30 5 1 9 4
M  V30 6 1 9 6
M  V30 7 2 10 2
M  V30 8 1 11 5
M  V30 9 1 12 1
M  V30 10 1 13 9
M  V30 11 1 14 2
M  V30 12 2 15 11
M  V30 13 2 16 12
M  V30 14 1 16 15
M  V30 15 1 17 1
M  V30 16 1 17 7
M  V30 17 1 18 13
M  V30 18 1 18 14
M  V30 19 1 19 3
M  V30 20 1 20 3
M  V30 21 1 21 4
M  V30 22 1 22 4
M  V30 23 1 23 5
M  V30 24 1 24 6
M  V30 25 1 25 6
M  V30 26 1 26 6
M  V30 27 1 27 7
M  V30 28 1 28 7
M  V30 29 1 29 8
M  V30 30 1 9 30 CFG=3
M  V30 31 1 31 11
M  V30 32 1 32 12
M  V30 33 1 33 13
M  V30 34 1 34 13
M  V30 35 1 35 14
M  V30 36 1 36 14
M  V30 37 1 37 15
M  V30 38 1 38 16
M  V30 39 1 39 18
M  V30 40 1 40 4
M  V30 END BOND
M  V30 END CTAB
M  END
>  <i_epik_Tot_Q>  (1) 
1

>  <i_epik_Tot_abs_Q>  (1) 
1

>  <i_i_glide_confnum>  (1) 
147

>  <i_i_glide_lignum>  (1) 
51

>  <i_i_glide_posenum>  (1) 
282

>  <i_i_glide_rotatable_bonds>  (1) 
9

>  <i_lp_mmshare_version>  (1) 
72125

>  <i_m_source_file_index>  (1) 
31

>  <i_f3d_flags>  (1) 
0

>  <num_sample>  (1) 
100

>  <b_lp_Chiralities_Consistent>  (1) 
1

>  <r_epik_Charging_Adjusted_Penalty>  (1) 
0.039337521643073213

>  <r_epik_Ionization_Penalty>  (1) 
0.013279431624003777

>  <r_epik_Ionization_Penalty_Charging>  (1) 
0.0075602006563197741

>  <r_epik_Ionization_Penalty_Neutral>  (1) 
0.0057192309676840029

>  <r_epik_State_Penalty>  (1) 
0.031777320986753441

>  <r_glide_ring_energy>  (1) 
0

>  <r_i_docking_score>  (1) 
-3.7539320151420275

>  <r_i_glide_ecoul>  (1) 
-9.883870641277257

>  <r_i_glide_eff_state_penalty>  (1) 
0.031777320986753441

>  <r_i_glide_einternal>  (1) 
8.1378701077955711

>  <r_i_glide_emodel>  (1) 
-46.816118360791833

>  <r_i_glide_emodel_strain>  (1) 
0.083708014202187542

>  <r_i_glide_energy>  (1) 
-37.416693330960342

>  <r_i_glide_erotb>  (1) 
3.8578777710225149

>  <r_i_glide_esite>  (1) 
-0.10000000000000001

>  <r_i_glide_evdw>  (1) 
-27.532822689683083

>  <r_i_glide_gscore>  (1) 
-3.785709336128781

>  <r_i_glide_gscore_strain>  (1) 
0

>  <r_i_glide_hbond>  (1) 
-0.15065397866670022

>  <r_i_glide_ligand_efficiency>  (1) 
-0.20855177861900154

>  <r_i_glide_ligand_efficiency_ln>  (1) 
-0.9649288676648422

>  <r_i_glide_ligand_efficiency_sa>  (1) 
-0.54656027906270721

>  <r_i_glide_lipo>  (1) 
-2.1429081134958929

>  <r_i_glide_metal>  (1) 
-0

>  <r_i_glide_rewards>  (1) 
-2.3908032843129612

>  <r_lp_Energy>  (1) 
19.421258999999999

>  <r_lp_tautomer_probability>  (1) 
1

>  <s_epik_cmdline>  (1) 
J2VwaWtfcHl0aG9uJywgJy1waHQnLCAnMS4wJywgJy1waCcsICc3LjQnLCAnLXRuJywgJzgnLCAnLW1hJywgJzUwMCcsICctaW1hZScsICc8aW5maWxlLm1hZT4nLCAnLW9tYWUnLCAnPG91dGZpbGUubWFlPic=

>  <s_epik_input>  (1) 
W2NIXTFbY0hdW2NIXVtjSF1bY0hdYzFPW0NIMl1bQ0gyXVtOSF1DKD1PKVtDSDJdW05IXVtDSDJdW0NAQEhdKFtOSDJdKVtDSDNd

>  <s_glide_docking_method>  (1) 
confgen

>  <s_i_glide_gridfile>  (1) 
gpcr_drd2_6luq_protein_autoprepared_prepared

>  <s_lp_Force_Field>  (1) 
S-OPLS

>  <s_lp_Variant>  (1) 
DiffSBDD_30-1

>  <s_m_source_file>  (1) 
generated_generic_title2_ligand_DiffSBDD_2026-06-23_prepared.sdf

>  <GenAI_Model>  (1) 
DiffSBDD

>  <Protein>  (1) 
generic_title2

$$$$
DiffSBDD_27
     RDKit          3D

  0  0  0  0  0  0  0  0  0  0999 V3000
M  V30 BEGIN CTAB
M  V30 COUNTS 81 86 0 0 1
M  V30 BEGIN ATOM
M  V30 1 O 12.174934 9.069189 -7.330634 0
M  V30 2 C 7.304508 4.780884 -12.136436 0
M  V30 3 C 13.567028 0.137029 -18.500638 0
M  V30 4 C 13.332928 5.462259 -16.442218 0
M  V30 5 C 10.488416 7.021273 -9.364951 0
M  V30 6 C 11.367476 4.752052 -18.432833 0 CFG=1
M  V30 7 O 11.166602 5.768613 -17.445908 0
M  V30 8 C 11.290392 3.289308 -17.854932 0 CFG=1
M  V30 9 C 7.267755 5.820021 -15.313450 0
M  V30 10 O 7.501679 2.100158 -14.671036 0
M  V30 11 C 10.519316 6.516506 -20.202430 0
M  V30 12 N 9.130539 4.483672 -19.586674 0
M  V30 13 C 5.306887 3.728901 -13.271529 0
M  V30 14 O 6.714654 4.198691 -18.789723 0
M  V30 15 C 7.714792 3.464487 -14.354866 0 CFG=2
M  V30 16 C 8.562073 4.190335 -16.795784 0 CFG=2
M  V30 17 O 6.818072 5.910753 -12.171876 0
M  V30 18 O 7.927054 6.390272 -18.383840 0
M  V30 19 C 10.613339 7.369283 -7.968154 0 CFG=1
M  V30 20 C 11.973335 7.676405 -7.406020 0
M  V30 21 O 10.056612 2.603852 -18.081635 0
M  V30 22 C 10.454386 5.119373 -19.618776 0
M  V30 23 C 12.351052 2.387694 -18.522382 0
M  V30 24 C 8.400428 4.414527 -11.142497 0
M  V30 25 C 10.067730 6.124939 -11.985095 0
M  V30 26 O 9.017109 5.491204 -8.506523 0
M  V30 27 C 6.828582 3.675389 -13.077492 0 CFG=1
M  V30 28 C 9.374405 5.543117 -10.904643 0
M  V30 29 C 9.024630 2.738381 -17.103032 0
M  V30 30 C 12.167991 6.128276 -16.564181 0
M  V30 31 C 9.373764 7.544284 -7.110815 0 CFG=1
M  V30 32 C 9.615076 6.013858 -9.603327 0
M  V30 33 C 8.975518 6.390334 -6.198819 0
M  V30 34 C 11.196813 7.625620 -10.420015 0
M  V30 35 C 7.487047 4.329216 -15.650993 0 CFG=2
M  V30 36 C 9.786055 6.153719 -7.431144 0 CFG=1
M  V30 37 S 7.939834 4.921745 -18.417546 0
M  V30 38 C 12.544758 1.042934 -17.804853 0
M  V30 39 C 11.039078 5.345543 -20.997503 0
M  V30 40 C 10.985616 7.164735 -11.742797 0
M  V30 41 H 13.026067 9.231713 -6.953801 0
M  V30 42 H 13.684935 -0.803860 -17.962397 0
M  V30 43 H 13.254828 -0.098046 -19.518097 0
M  V30 44 H 14.546805 0.612653 -18.551919 0
M  V30 45 H 14.081616 5.788801 -15.735158 0
M  V30 46 H 13.553530 4.593142 -17.036618 0
M  V30 47 H 12.374658 4.913460 -18.818321 0
M  V30 48 H 11.505158 3.310526 -16.785538 0
M  V30 49 H 8.155320 6.265646 -14.863062 0
M  V30 50 H 6.998170 6.413518 -16.181321 0
M  V30 51 H 6.436731 5.970527 -14.631470 0
M  V30 52 H 7.696646 1.569853 -13.912872 0
M  V30 53 H 9.587896 6.974417 -20.528255 0
M  V30 54 H 11.251928 7.205848 -19.787089 0
M  V30 55 H 9.203561 3.466621 -19.643373 0
M  V30 56 H 4.797385 3.990342 -12.342812 0
M  V30 57 H 4.998081 4.469484 -14.001440 0
M  V30 58 H 4.942899 2.752652 -13.585012 0
M  V30 59 H 8.755465 3.590361 -14.055371 0
M  V30 60 H 9.413615 4.763233 -16.457467 0
M  V30 61 H 12.754319 7.200085 -7.985013 0
M  V30 62 H 12.001327 7.268019 -6.398431 0
M  V30 63 H 12.074205 2.216616 -19.563663 0
M  V30 64 H 13.315557 2.894868 -18.548235 0
M  V30 65 H 8.955043 3.547453 -11.501603 0
M  V30 66 H 7.920846 4.130892 -10.207294 0
M  V30 67 H 9.905988 5.768793 -12.992470 0
M  V30 68 H 6.990812 2.790075 -12.461892 0
M  V30 69 H 9.375410 2.211801 -16.227174 0
M  V30 70 H 8.168020 2.166237 -17.459213 0
M  V30 71 H 11.907339 7.003278 -15.986806 0
M  V30 72 H 8.575416 8.034225 -7.645353 0
M  V30 73 H 7.950682 6.024249 -6.216565 0
M  V30 74 H 9.499323 6.301037 -5.250199 0
M  V30 75 H 11.899780 8.422390 -10.222729 0
M  V30 76 H 6.575416 3.962595 -16.091136 0
M  V30 77 H 12.879841 1.228022 -16.784997 0
M  V30 78 H 11.591403 0.518115 -17.729819 0
M  V30 79 H 12.117236 5.268012 -21.120740 0
M  V30 80 H 10.452592 5.030264 -21.857751 0
M  V30 81 H 11.529778 7.590178 -12.564916 0
M  V30 END ATOM
M  V30 BEGIN BOND
M  V30 1 1 7 6
M  V30 2 1 8 6
M  V30 3 1 15 10
M  V30 4 2 17 2
M  V30 5 1 19 5
M  V30 6 1 20 1
M  V30 7 1 19 20 CFG=1
M  V30 8 1 21 8
M  V30 9 1 22 6
M  V30 10 1 22 11
M  V30 11 1 22 12
M  V30 12 1 23 8
M  V30 13 1 24 2
M  V30 14 1 27 2
M  V30 15 1 27 13
M  V30 16 1 27 15
M  V30 17 1 28 24
M  V30 18 1 28 25
M  V30 19 1 29 16
M  V30 20 1 29 21
M  V30 21 2 30 4
M  V30 22 1 30 7
M  V30 23 1 31 19
M  V30 24 1 32 5
M  V30 25 1 32 26
M  V30 26 2 32 28
M  V30 27 1 33 31
M  V30 28 2 34 5
M  V30 29 1 35 9
M  V30 30 1 35 15
M  V30 31 1 35 16
M  V30 32 1 36 19
M  V30 33 1 36 26 CFG=3
M  V30 34 1 36 31
M  V30 35 1 36 33
M  V30 36 1 37 12
M  V30 37 2 37 14
M  V30 38 1 37 16
M  V30 39 2 37 18
M  V30 40 1 38 3
M  V30 41 1 38 23
M  V30 42 1 39 11
M  V30 43 1 39 22
M  V30 44 2 40 25
M  V30 45 1 40 34
M  V30 46 1 41 1
M  V30 47 1 42 3
M  V30 48 1 43 3
M  V30 49 1 44 3
M  V30 50 1 45 4
M  V30 51 1 46 4
M  V30 52 1 6 47 CFG=3
M  V30 53 1 8 48 CFG=1
M  V30 54 1 49 9
M  V30 55 1 50 9
M  V30 56 1 51 9
M  V30 57 1 52 10
M  V30 58 1 53 11
M  V30 59 1 54 11
M  V30 60 1 55 12
M  V30 61 1 56 13
M  V30 62 1 57 13
M  V30 63 1 58 13
M  V30 64 1 15 59 CFG=1
M  V30 65 1 16 60 CFG=1
M  V30 66 1 61 20
M  V30 67 1 62 20
M  V30 68 1 63 23
M  V30 69 1 64 23
M  V30 70 1 65 24
M  V30 71 1 66 24
M  V30 72 1 67 25
M  V30 73 1 27 68 CFG=1
M  V30 74 1 69 29
M  V30 75 1 70 29
M  V30 76 1 71 30
M  V30 77 1 31 72 CFG=3
M  V30 78 1 73 33
M  V30 79 1 74 33
M  V30 80 1 75 34
M  V30 81 1 35 76 CFG=3
M  V30 82 1 77 38
M  V30 83 1 78 38
M  V30 84 1 79 39
M  V30 85 1 80 39
M  V30 86 1 81 40
M  V30 END BOND
M  V30 END CTAB
M  END
>  <i_epik_Tot_Q>  (1) 
0

>  <i_epik_Tot_abs_Q>  (1) 
0

>  <i_i_glide_confnum>  (1) 
498

>  <i_i_glide_lignum>  (1) 
48

>  <i_i_glide_posenum>  (1) 
398

>  <i_i_glide_rotatable_bonds>  (1) 
13

>  <i_lp_mmshare_version>  (1) 
72125

>  <i_m_source_file_index>  (1) 
28

>  <i_f3d_flags>  (1) 
2

>  <num_sample>  (1) 
100

>  <b_lp_Chiralities_Consistent>  (1) 
0

>  <r_epik_Charging_Adjusted_Penalty>  (1) 
0

>  <r_epik_Ionization_Penalty>  (1) 
0.00012193090232543848

>  <r_epik_Ionization_Penalty_Charging>  (1) 
0

>  <r_epik_Ionization_Penalty_Neutral>  (1) 
0.00012193090232543848

>  <r_epik_State_Penalty>  (1) 
-0

>  <r_glide_ring_energy>  (1) 
0

>  <r_i_docking_score>  (1) 
-3.742493800250219

>  <r_i_glide_ecoul>  (1) 
-0.11619500661391413

>  <r_i_glide_eff_state_penalty>  (1) 
-0

>  <r_i_glide_einternal>  (1) 
7.0416148726638337

>  <r_i_glide_emodel>  (1) 
-33.215941810191445

>  <r_i_glide_emodel_strain>  (1) 
1.1481314806730012

>  <r_i_glide_energy>  (1) 
-31.145294846113529

>  <r_i_glide_erotb>  (1) 
0.53438368926625224

>  <r_i_glide_esite>  (1) 
0

>  <r_i_glide_evdw>  (1) 
-31.029099839499615

>  <r_i_glide_gscore>  (1) 
-3.742493800250219

>  <r_i_glide_gscore_strain>  (1) 
0

>  <r_i_glide_hbond>  (1) 
0

>  <r_i_glide_ligand_efficiency>  (1) 
-0.093562345006255473

>  <r_i_glide_ligand_efficiency_ln>  (1) 
-0.79816379091738532

>  <r_i_glide_ligand_efficiency_sa>  (1) 
-0.31997871895072694

>  <r_i_glide_lipo>  (1) 
-1.8973062531076044

>  <r_i_glide_metal>  (1) 
-0

>  <r_i_glide_rewards>  (1) 
-0.81068699344179906

>  <r_lp_Energy>  (1) 
34.534008

>  <r_lp_tautomer_probability>  (1) 
1

>  <s_epik_cmdline>  (1) 
J2VwaWtfcHl0aG9uJywgJy1waHQnLCAnMS4wJywgJy1waCcsICc3LjQnLCAnLXRuJywgJzgnLCAnLW1hJywgJzUwMCcsICctaW1hZScsICc8aW5maWxlLm1hZT4nLCAnLW9tYWUnLCAnPG91dGZpbGUubWFlPic=

>  <s_epik_input>  (1) 
W09IXVtDSDJdW0NAQF0oW0NAXTEyMykoW0NIXTJbQ0gyXTMpYzRjKE8xKWMoW2NIXVtjSF1bY0hdNClbQ0gyXUMoPU8pW0NAQEhdKFtDSDNdKVtDQEBIXShbT0hdKVtDQEBIXShbQ0gzXSlbQ0BIXShTKD1PKSg9TylbTkhdNSlbQ0gyXU9bQ0BASF0oW0NIMl1bQ0gyXVtDSDNdKVtDQEhdKE9bQ0hdPVtDSDJdKUM1NltDSDJdW0NIMl02

>  <s_glide_docking_method>  (1) 
confgen

>  <s_i_glide_gridfile>  (1) 
gpcr_drd2_6luq_protein_autoprepared_prepared

>  <s_lp_Force_Field>  (1) 
S-OPLS

>  <s_lp_Variant>  (1) 
DiffSBDD_27-1

>  <s_m_source_file>  (1) 
generated_generic_title2_ligand_DiffSBDD_2026-06-23_prepared.sdf

>  <GenAI_Model>  (1) 
DiffSBDD

>  <Protein>  (1) 
generic_title2

$$$$
DiffSBDD_54
     RDKit          3D

  0  0  0  0  0  0  0  0  0  0999 V3000
M  V30 BEGIN CTAB
M  V30 COUNTS 44 46 0 0 1
M  V30 BEGIN ATOM
M  V30 1 C 11.041454 7.297636 -11.465089 0
M  V30 2 C 11.493871 9.620824 -3.585326 0
M  V30 3 C 8.273143 5.764965 -7.620885 0
M  V30 4 C 9.871920 8.750116 -7.754515 0 CFG=1
M  V30 5 C 12.674407 7.510277 -3.883176 0
M  V30 6 C 7.955702 5.190769 -8.958774 0
M  V30 7 F 9.450514 5.776778 -11.206595 0
M  V30 8 C 11.993800 8.659260 -4.685855 0
M  V30 9 C 10.704681 7.563811 -8.087634 0 CFG=2
M  V30 10 C 9.918628 6.838339 -10.546472 0
M  V30 11 C 9.886802 8.970809 -6.270692 0
M  V30 12 C 11.343041 7.066546 -6.787819 0
M  V30 13 C 11.110783 8.937208 -8.583309 0
M  V30 14 C 9.408603 5.353764 -8.523636 0
M  V30 15 C 12.954208 9.590270 -5.490174 0
M  V30 16 C 10.881142 8.001644 -5.612832 0 CFG=1
M  V30 17 F 8.981252 7.781285 -10.555106 0
M  V30 18 C 10.322834 6.445876 -9.089568 0 CFG=2
M  V30 19 H 10.574400 7.897481 -12.250931 0
M  V30 20 H 11.796284 7.873115 -10.930186 0
M  V30 21 H 11.546854 6.465537 -11.958601 0
M  V30 22 H 10.976446 9.179979 -2.750909 0
M  V30 23 H 10.902502 10.455328 -3.965735 0
M  V30 24 H 12.372255 10.005606 -3.073658 0
M  V30 25 H 7.926542 5.190033 -6.784707 0
M  V30 26 H 8.175974 6.826600 -7.471314 0
M  V30 27 H 8.922260 8.899817 -8.262528 0
M  V30 28 H 13.764255 7.601808 -3.716102 0
M  V30 29 H 12.219831 7.361009 -2.905292 0
M  V30 30 H 12.512467 6.560909 -4.385499 0
M  V30 31 H 7.560503 5.860703 -9.714785 0
M  V30 32 H 7.516222 4.198749 -8.964110 0
M  V30 33 H 8.865256 8.790558 -5.937744 0
M  V30 34 H 10.175398 9.989752 -6.066754 0
M  V30 35 H 12.415430 7.013816 -6.949860 0
M  V30 36 H 11.025508 6.045533 -6.577340 0
M  V30 37 H 10.888386 9.281178 -9.585854 0
M  V30 38 H 11.960548 9.424552 -8.116519 0
M  V30 39 H 9.912777 4.401086 -8.374084 0
M  V30 40 H 12.411635 10.474422 -5.820828 0
M  V30 41 H 13.787243 9.950419 -4.884083 0
M  V30 42 H 13.382897 9.190029 -6.399483 0
M  V30 43 H 10.276912 7.365862 -4.963500 0
M  V30 44 H 11.283784 5.990555 -9.184985 0
M  V30 END ATOM
M  V30 BEGIN BOND
M  V30 1 1 6 3
M  V30 2 1 8 2
M  V30 3 1 8 5
M  V30 4 1 9 4
M  V30 5 1 10 1
M  V30 6 1 10 7
M  V30 7 1 11 4
M  V30 8 1 9 12 CFG=1
M  V30 9 1 13 4
M  V30 10 1 13 9
M  V30 11 1 14 3
M  V30 12 1 14 6
M  V30 13 1 15 8
M  V30 14 1 16 8
M  V30 15 1 16 11
M  V30 16 1 16 12
M  V30 17 1 17 10
M  V30 18 1 18 9
M  V30 19 1 18 10
M  V30 20 1 18 14
M  V30 21 1 19 1
M  V30 22 1 20 1
M  V30 23 1 21 1
M  V30 24 1 22 2
M  V30 25 1 23 2
M  V30 26 1 24 2
M  V30 27 1 25 3
M  V30 28 1 26 3
M  V30 29 1 4 27 CFG=3
M  V30 30 1 28 5
M  V30 31 1 29 5
M  V30 32 1 30 5
M  V30 33 1 31 6
M  V30 34 1 32 6
M  V30 35 1 33 11
M  V30 36 1 34 11
M  V30 37 1 35 12
M  V30 38 1 36 12
M  V30 39 1 37 13
M  V30 40 1 38 13
M  V30 41 1 39 14
M  V30 42 1 40 15
M  V30 43 1 41 15
M  V30 44 1 42 15
M  V30 45 1 16 43 CFG=1
M  V30 46 1 18 44 CFG=3
M  V30 END BOND
M  V30 END CTAB
M  END
>  <i_epik_Tot_Q>  (1) 
0

>  <i_epik_Tot_abs_Q>  (1) 
0

>  <i_i_glide_confnum>  (1) 
14

>  <i_i_glide_lignum>  (1) 
87

>  <i_i_glide_posenum>  (1) 
142

>  <i_i_glide_rotatable_bonds>  (1) 
4

>  <i_lp_mmshare_version>  (1) 
72125

>  <i_m_source_file_index>  (1) 
55

>  <i_f3d_flags>  (1) 
0

>  <num_sample>  (1) 
100

>  <b_lp_Chiralities_Consistent>  (1) 
1

>  <r_epik_Charging_Adjusted_Penalty>  (1) 
0

>  <r_epik_Ionization_Penalty>  (1) 
0

>  <r_epik_Ionization_Penalty_Charging>  (1) 
0

>  <r_epik_Ionization_Penalty_Neutral>  (1) 
0

>  <r_epik_State_Penalty>  (1) 
-0

>  <r_glide_ring_energy>  (1) 
0

>  <r_i_docking_score>  (1) 
-3.7418644898801898

>  <r_i_glide_ecoul>  (1) 
1.3028207978454991

>  <r_i_glide_eff_state_penalty>  (1) 
-0

>  <r_i_glide_einternal>  (1) 
12.662183906973329

>  <r_i_glide_emodel>  (1) 
4.8751050520840788

>  <r_i_glide_emodel_strain>  (1) 
3.2278666016879072

>  <r_i_glide_energy>  (1) 
-2.7859095872000643

>  <r_i_glide_erotb>  (1) 
0.53627995581458066

>  <r_i_glide_esite>  (1) 
-0.1024700960121292

>  <r_i_glide_evdw>  (1) 
-4.0887303850455634

>  <r_i_glide_gscore>  (1) 
-3.7418644898801898

>  <r_i_glide_gscore_strain>  (1) 
0

>  <r_i_glide_hbond>  (1) 
0

>  <r_i_glide_ligand_efficiency>  (1) 
-0.20788136054889944

>  <r_i_glide_ligand_efficiency_ln>  (1) 
-0.96182697252144245

>  <r_i_glide_ligand_efficiency_sa>  (1) 
-0.54480328667496503

>  <r_i_glide_lipo>  (1) 
-1.7159683127958272

>  <r_i_glide_metal>  (1) 
-0

>  <r_i_glide_rewards>  (1) 
-2.4506926373113611

>  <r_lp_Energy>  (1) 
23.887898999999997

>  <r_lp_tautomer_probability>  (1) 
1

>  <s_epik_cmdline>  (1) 
J2VwaWtfcHl0aG9uJywgJy1waHQnLCAnMS4wJywgJy1waCcsICc3LjQnLCAnLXRuJywgJzgnLCAnLW1hJywgJzUwMCcsICctaW1hZScsICc8aW5maWxlLm1hZT4nLCAnLW9tYWUnLCAnPG91dGZpbGUubWFlPic=

>  <s_epik_input>  (1) 
W0NIMl0xW0NIMl1bQ0hdMVtDQEBIXShDKEYpKEYpW0NIM10pW0NAQF0yM1tDQEhdKFtDSDJdMylbQ0gyXVtDQEBIXShbQ0gyXTIpQyhbQ0gzXSkoW0NIM10pW0NIM10=

>  <s_glide_docking_method>  (1) 
confgen

>  <s_i_glide_gridfile>  (1) 
gpcr_drd2_6luq_protein_autoprepared_prepared

>  <s_lp_Force_Field>  (1) 
S-OPLS

>  <s_lp_Variant>  (1) 
DiffSBDD_54-1

>  <s_m_source_file>  (1) 
generated_generic_title2_ligand_DiffSBDD_2026-06-23_prepared.sdf

>  <GenAI_Model>  (1) 
DiffSBDD

>  <Protein>  (1) 
generic_title2

$$$$
DiffSBDD_92
     RDKit          3D

  0  0  0  0  0  0  0  0  0  0999 V3000
M  V30 BEGIN CTAB
M  V30 COUNTS 50 51 0 0 1
M  V30 BEGIN ATOM
M  V30 1 O 8.297896 5.189944 -14.736552 0
M  V30 2 N 8.038519 6.157827 -12.704246 0
M  V30 3 C 7.775409 6.041492 -14.017780 0
M  V30 4 C 9.223580 8.341263 -7.038892 0
M  V30 5 Cl 7.223749 5.992407 -19.450097 0
M  V30 6 O 4.975415 7.512643 -16.030659 0
M  V30 7 C 10.353678 6.068132 -7.289997 0
M  V30 8 C 4.958544 7.021587 -18.361393 0
M  V30 9 C 6.079795 6.012950 -18.086304 0 CFG=2
M  V30 10 C 11.576935 6.610296 -6.542076 0
M  V30 11 C 11.164216 7.697243 -5.542643 0
M  V30 12 C 6.779732 7.047095 -14.602862 0
M  V30 13 C 9.178205 5.831962 -10.551651 0
M  V30 14 C 5.947555 6.542431 -15.795228 0 CFG=2
M  V30 15 O 6.777991 6.390227 -16.907936 0
M  V30 16 C 8.990007 5.295297 -11.995455 0 CFG=1
M  V30 17 N 10.175413 7.678000 -9.212028 0
M  V30 18 C 4.105797 7.175553 -17.101821 0
M  V30 19 C 10.035913 7.117527 -10.434112 0
M  V30 20 C 9.535329 7.169595 -7.993189 0
M  V30 21 O 10.573097 7.589994 -11.430348 0
M  V30 22 C 10.462788 8.842869 -6.278449 0
M  V30 23 C 8.514058 3.829689 -11.975367 0
M  V30 24 H 7.575324 6.881805 -12.171951 0
M  V30 25 H 8.752490 9.160175 -7.585020 0
M  V30 26 H 8.479118 8.007440 -6.316814 0
M  V30 27 H 9.696682 5.590230 -6.566178 0
M  V30 28 H 10.655701 5.286948 -7.985022 0
M  V30 29 H 4.349106 6.699804 -19.205390 0
M  V30 30 H 5.383352 7.990248 -18.624911 0
M  V30 31 H 5.682088 5.003933 -17.985026 0
M  V30 32 H 12.086202 5.795733 -6.025717 0
M  V30 33 H 12.285390 7.023484 -7.258224 0
M  V30 34 H 10.498736 7.266774 -4.793728 0
M  V30 35 H 12.026882 8.081490 -4.998440 0
M  V30 36 H 6.079473 7.332230 -13.816389 0
M  V30 37 H 7.310183 7.952688 -14.897285 0
M  V30 38 H 9.655525 5.058228 -9.953013 0
M  V30 39 H 8.183879 5.990225 -10.134691 0
M  V30 40 H 5.470209 5.590223 -15.555069 0
M  V30 41 H 9.949814 5.322975 -12.516356 0
M  V30 42 H 10.736907 8.510863 -9.127240 0
M  V30 43 H 3.562659 6.256988 -16.874800 0
M  V30 44 H 3.364465 7.964451 -17.231268 0
M  V30 45 H 8.575393 6.736294 -8.232767 0
M  V30 46 H 10.175418 9.607311 -5.561173 0
M  V30 47 H 11.159934 9.315016 -6.971240 0
M  V30 48 H 9.168185 3.214379 -11.356899 0
M  V30 49 H 7.499776 3.751914 -11.585027 0
M  V30 50 H 8.520239 3.380716 -12.968001 0
M  V30 END ATOM
M  V30 BEGIN BOND
M  V30 1 2 3 1
M  V30 2 1 3 2
M  V30 3 1 9 5
M  V30 4 1 9 8
M  V30 5 1 10 7
M  V30 6 1 11 10
M  V30 7 1 12 3
M  V30 8 1 14 6
M  V30 9 1 14 12
M  V30 10 1 15 9
M  V30 11 1 15 14
M  V30 12 1 16 2
M  V30 13 1 16 13
M  V30 14 1 18 6
M  V30 15 1 18 8
M  V30 16 1 19 13
M  V30 17 1 19 17
M  V30 18 1 20 4
M  V30 19 1 20 7
M  V30 20 1 20 17
M  V30 21 2 21 19
M  V30 22 1 22 4
M  V30 23 1 22 11
M  V30 24 1 23 16
M  V30 25 1 24 2
M  V30 26 1 25 4
M  V30 27 1 26 4
M  V30 28 1 27 7
M  V30 29 1 28 7
M  V30 30 1 29 8
M  V30 31 1 30 8
M  V30 32 1 9 31 CFG=1
M  V30 33 1 32 10
M  V30 34 1 33 10
M  V30 35 1 34 11
M  V30 36 1 35 11
M  V30 37 1 36 12
M  V30 38 1 37 12
M  V30 39 1 38 13
M  V30 40 1 39 13
M  V30 41 1 14 40 CFG=1
M  V30 42 1 16 41 CFG=3
M  V30 43 1 42 17
M  V30 44 1 43 18
M  V30 45 1 44 18
M  V30 46 1 45 20
M  V30 47 1 46 22
M  V30 48 1 47 22
M  V30 49 1 48 23
M  V30 50 1 49 23
M  V30 51 1 50 23
M  V30 END BOND
M  V30 END CTAB
M  END
>  <i_epik_Tot_Q>  (1) 
0

>  <i_epik_Tot_abs_Q>  (1) 
0

>  <i_i_glide_confnum>  (1) 
255

>  <i_i_glide_lignum>  (1) 
175

>  <i_i_glide_posenum>  (1) 
170

>  <i_i_glide_rotatable_bonds>  (1) 
8

>  <i_lp_mmshare_version>  (1) 
72125

>  <i_m_source_file_index>  (1) 
93

>  <i_f3d_flags>  (1) 
0

>  <num_sample>  (1) 
100

>  <b_lp_Chiralities_Consistent>  (1) 
1

>  <r_epik_Charging_Adjusted_Penalty>  (1) 
0

>  <r_epik_Ionization_Penalty>  (1) 
1.562769370877429e-07

>  <r_epik_Ionization_Penalty_Charging>  (1) 
0

>  <r_epik_Ionization_Penalty_Neutral>  (1) 
1.562769370877429e-07

>  <r_epik_State_Penalty>  (1) 
-0

>  <r_glide_ring_energy>  (1) 
0.00054248204421707515

>  <r_i_docking_score>  (1) 
-3.7366098771890242

>  <r_i_glide_ecoul>  (1) 
-1.937749679252438

>  <r_i_glide_eff_state_penalty>  (1) 
-0

>  <r_i_glide_einternal>  (1) 
7.1536424453048095

>  <r_i_glide_emodel>  (1) 
-39.599331444759024

>  <r_i_glide_emodel_strain>  (1) 
0.1774999717680501

>  <r_i_glide_energy>  (1) 
-35.335380472353712

>  <r_i_glide_erotb>  (1) 
0.94841189780278856

>  <r_i_glide_esite>  (1) 
-0.14898603864970023

>  <r_i_glide_evdw>  (1) 
-33.397630793101271

>  <r_i_glide_gscore>  (1) 
-3.7366098771890242

>  <r_i_glide_gscore_strain>  (1) 
0

>  <r_i_glide_hbond>  (1) 
0

>  <r_i_glide_ligand_efficiency>  (1) 
-0.16246129900821843

>  <r_i_glide_ligand_efficiency_ln>  (1) 
-0.90354615000942384

>  <r_i_glide_ligand_efficiency_sa>  (1) 
-0.46201832375326435

>  <r_i_glide_lipo>  (1) 
-2.0684931066291412

>  <r_i_glide_metal>  (1) 
-0

>  <r_i_glide_rewards>  (1) 
-0.5069986381700422

>  <r_lp_Energy>  (1) 
5.1782649999999997

>  <r_lp_tautomer_probability>  (1) 
1

>  <s_epik_Chemistry_Notes>  (1) 
This compound contains an acetal/aminal-like group ( X-CH(R)-Y where X, Y are N, S, or O) that may be acid/base labile, releasing an aldehyde.

>  <s_epik_cmdline>  (1) 
J2VwaWtfcHl0aG9uJywgJy1waHQnLCAnMS4wJywgJy1waCcsICc3LjQnLCAnLXRuJywgJzgnLCAnLW1hJywgJzUwMCcsICctaW1hZScsICc8aW5maWxlLm1hZT4nLCAnLW9tYWUnLCAnPG91dGZpbGUubWFlPic=

>  <s_epik_input>  (1) 
Q2xbQ0BASF0xW0NIMl1bQ0gyXU9bQ0BASF0oTzEpW0NIMl1DKD1PKVtOSF1bQ0BIXShbQ0gzXSlbQ0gyXUMoPU8pW05IXVtDSF0yW0NIMl1bQ0gyXVtDSDJdW0NIMl1bQ0gyXTI=

>  <s_glide_docking_method>  (1) 
confgen

>  <s_i_glide_gridfile>  (1) 
gpcr_drd2_6luq_protein_autoprepared_prepared

>  <s_lp_Force_Field>  (1) 
S-OPLS

>  <s_lp_Variant>  (1) 
DiffSBDD_92-1

>  <s_m_source_file>  (1) 
generated_generic_title2_ligand_DiffSBDD_2026-06-23_prepared.sdf

>  <GenAI_Model>  (1) 
DiffSBDD

>  <Protein>  (1) 
generic_title2

$$$$
DiffSBDD_83
     RDKit          3D

  0  0  0  0  0  0  0  0  0  0999 V3000
M  V30 BEGIN CTAB
M  V30 COUNTS 44 46 0 0 1
M  V30 BEGIN ATOM
M  V30 1 C 6.809001 0.580177 -15.443626 0
M  V30 2 C 11.066274 7.908297 -6.472842 0
M  V30 3 C 11.470900 8.182771 -8.863206 0
M  V30 4 C 9.340148 5.815542 -10.747084 0
M  V30 5 F 9.375430 6.390227 -5.734691 0
M  V30 6 C 11.775410 8.511731 -7.528261 0
M  V30 7 C 9.742575 6.642666 -8.080816 0
M  V30 8 C 7.006354 2.070346 -13.679582 0 CFG=1
M  V30 9 C 10.052164 6.973730 -6.749741 0
M  V30 10 N 5.813256 0.244445 -14.760932 0
M  V30 11 N 7.418722 4.591748 -13.153037 0
M  V30 12 C 7.716186 1.666441 -14.988988 0 CFG=2
M  V30 13 C 10.456224 7.247115 -9.147550 0
M  V30 14 C 7.919490 2.757509 -16.056970 0
M  V30 15 C 6.318388 4.206112 -12.277519 0
M  V30 16 O 10.175413 6.933234 -10.462429 0
M  V30 17 C 9.520003 5.432985 -12.218429 0
M  V30 18 F 11.362895 8.226008 -5.189817 0
M  V30 19 C 5.839192 0.211959 -12.318112 0
M  V30 20 C 8.713224 4.186912 -12.612244 0
M  V30 21 C 6.525926 3.527559 -13.606745 0 CFG=2
M  V30 22 C 5.799855 1.085063 -13.581237 0 CFG=1
M  V30 23 H 7.064229 0.103497 -16.393627 0
M  V30 24 H 12.017860 8.646912 -9.671057 0
M  V30 25 H 8.297079 6.058971 -10.539658 0
M  V30 26 H 9.619946 4.955104 -10.136935 0
M  V30 27 H 12.555066 9.225162 -7.313385 0
M  V30 28 H 8.958214 5.929116 -8.280274 0
M  V30 29 H 7.676985 1.858754 -12.847049 0
M  V30 30 H 8.405950 2.348600 -16.943117 0
M  V30 31 H 6.975429 3.198169 -16.376937 0
M  V30 32 H 8.553218 3.562440 -15.684594 0
M  V30 33 H 5.484122 4.899996 -12.196471 0
M  V30 34 H 6.529762 3.638551 -11.373374 0
M  V30 35 H 10.575408 5.221385 -12.384927 0
M  V30 36 H 9.281360 6.277684 -12.866145 0
M  V30 37 H 5.817099 0.819036 -11.414150 0
M  V30 38 H 4.975408 -0.448309 -12.281462 0
M  V30 39 H 6.734335 -0.409567 -12.286233 0
M  V30 40 H 8.647427 3.494690 -11.772120 0
M  V30 41 H 9.255923 3.670472 -13.401408 0
M  V30 42 H 5.819133 3.804954 -14.385021 0
M  V30 43 H 4.861515 1.639419 -13.585016 0
M  V30 44 H 8.671144 1.202871 -14.747774 0
M  V30 END ATOM
M  V30 BEGIN BOND
M  V30 1 1 6 2
M  V30 2 2 6 3
M  V30 3 2 9 2
M  V30 4 1 9 5
M  V30 5 1 9 7
M  V30 6 2 10 1
M  V30 7 1 12 1
M  V30 8 1 12 8
M  V30 9 1 13 3
M  V30 10 2 13 7
M  V30 11 1 14 12
M  V30 12 1 15 11
M  V30 13 1 16 4
M  V30 14 1 16 13
M  V30 15 1 17 4
M  V30 16 1 18 2
M  V30 17 1 20 11
M  V30 18 1 20 17
M  V30 19 1 21 8
M  V30 20 1 21 11
M  V30 21 1 21 15
M  V30 22 1 22 8
M  V30 23 1 22 10
M  V30 24 1 22 19
M  V30 25 1 23 1
M  V30 26 1 24 3
M  V30 27 1 25 4
M  V30 28 1 26 4
M  V30 29 1 27 6
M  V30 30 1 28 7
M  V30 31 1 8 29 CFG=1
M  V30 32 1 30 14
M  V30 33 1 31 14
M  V30 34 1 32 14
M  V30 35 1 33 15
M  V30 36 1 34 15
M  V30 37 1 35 17
M  V30 38 1 36 17
M  V30 39 1 37 19
M  V30 40 1 38 19
M  V30 41 1 39 19
M  V30 42 1 40 20
M  V30 43 1 41 20
M  V30 44 1 21 42 CFG=3
M  V30 45 1 22 43 CFG=1
M  V30 46 1 12 44 CFG=1
M  V30 END BOND
M  V30 END CTAB
M  END
>  <i_epik_Tot_Q>  (1) 
0

>  <i_epik_Tot_abs_Q>  (1) 
0

>  <i_i_glide_confnum>  (1) 
81

>  <i_i_glide_lignum>  (1) 
151

>  <i_i_glide_posenum>  (1) 
42

>  <i_i_glide_rotatable_bonds>  (1) 
6

>  <i_lp_mmshare_version>  (1) 
72125

>  <i_m_source_file_index>  (1) 
84

>  <i_f3d_flags>  (1) 
0

>  <num_sample>  (1) 
100

>  <b_lp_Chiralities_Consistent>  (1) 
1

>  <r_epik_Charging_Adjusted_Penalty>  (1) 
1.2980487057549497

>  <r_epik_Ionization_Penalty>  (1) 
3.173295616345865

>  <r_epik_Ionization_Penalty_Charging>  (1) 
0

>  <r_epik_Ionization_Penalty_Neutral>  (1) 
3.173295616345865

>  <r_epik_State_Penalty>  (1) 
1.2980487057549497

>  <r_glide_ring_energy>  (1) 
0

>  <r_i_docking_score>  (1) 
-3.7331933741962318

>  <r_i_glide_ecoul>  (1) 
-0.091423450509756532

>  <r_i_glide_eff_state_penalty>  (1) 
1.2980487057549497

>  <r_i_glide_einternal>  (1) 
9.6231825562347986

>  <r_i_glide_emodel>  (1) 
-35.776439720446135

>  <r_i_glide_emodel_strain>  (1) 
0.81538551937881465

>  <r_i_glide_energy>  (1) 
-32.264043722129799

>  <r_i_glide_erotb>  (1) 
0.9727450720595302

>  <r_i_glide_esite>  (1) 
-0.00032200170787052704

>  <r_i_glide_evdw>  (1) 
-32.17262027162004

>  <r_i_glide_gscore>  (1) 
-5.0312420799511814

>  <r_i_glide_gscore_strain>  (1) 
0

>  <r_i_glide_hbond>  (1) 
0

>  <r_i_glide_ligand_efficiency>  (1) 
-0.16969060791801052

>  <r_i_glide_ligand_efficiency_ln>  (1) 
-0.91252863219047564

>  <r_i_glide_ligand_efficiency_sa>  (1) 
-0.47547975742908805

>  <r_i_glide_lipo>  (1) 
-2.0540358415461863

>  <r_i_glide_metal>  (1) 
-0

>  <r_i_glide_rewards>  (1) 
-2.3272847775991896

>  <r_lp_Energy>  (1) 
21.746376999999999

>  <r_lp_tautomer_probability>  (1) 
0.99998600000000004

>  <s_epik_Chemistry_Notes>  (1) 
This compound has an imine and may undergo hydrolysis.

>  <s_epik_cmdline>  (1) 
J2VwaWtfcHl0aG9uJywgJy1waHQnLCAnMS4wJywgJy1waCcsICc3LjQnLCAnLXRuJywgJzgnLCAnLW1hJywgJzUwMCcsICctaW1hZScsICc8aW5maWxlLm1hZT4nLCAnLW9tYWUnLCAnPG91dGZpbGUubWFlPic=

>  <s_epik_input>  (1) 
W0NIM11bQ0BASF0xTj1bQ0hdW0NAQEhdKFtDSDNdKVtDQEhdMVtDQEhdMltDSDJdTjJbQ0gyXVtDSDJdW0NIMl1PYyhbY0hdYzNGKVtjSF1bY0hdYzNG

>  <s_glide_docking_method>  (1) 
confgen

>  <s_i_glide_gridfile>  (1) 
gpcr_drd2_6luq_protein_autoprepared_prepared

>  <s_lp_Force_Field>  (1) 
S-OPLS

>  <s_lp_Variant>  (1) 
DiffSBDD_83-5

>  <s_m_source_file>  (1) 
generated_generic_title2_ligand_DiffSBDD_2026-06-23_prepared.sdf

>  <GenAI_Model>  (1) 
DiffSBDD

>  <Protein>  (1) 
generic_title2

$$$$
DiffSBDD_25
     RDKit          3D

  0  0  0  0  0  0  0  0  0  0999 V3000
M  V30 BEGIN CTAB
M  V30 COUNTS 64 67 0 0 1
M  V30 BEGIN ATOM
M  V30 1 C 8.411567 5.213121 -9.546503 0
M  V30 2 C 5.138586 -0.241024 -18.574092 0
M  V30 3 C 7.480554 2.603822 -15.819395 0
M  V30 4 C 9.306683 2.218623 -17.457204 0
M  V30 5 N 8.532073 3.202434 -16.693326 0
M  V30 6 C 7.542669 -3.175916 -18.056674 0
M  V30 7 C 8.847744 4.972422 -18.309460 0
M  V30 8 C 7.061137 -1.864830 -18.263126 0
M  V30 9 C 7.596701 2.459059 -14.253293 0 CFG=1
M  V30 10 C 7.137327 4.685936 -11.641480 0
M  V30 11 C 7.928038 5.565075 -16.168470 0
M  V30 12 O 5.781590 2.035524 -18.884444 0
M  V30 13 C 7.491323 6.282651 -13.796194 0 CFG=1
M  V30 14 C 6.140134 0.390949 -13.959179 0
M  V30 15 C 8.000092 -0.744557 -18.379622 0
M  V30 16 C 5.672807 -1.642296 -18.366225 0
M  V30 17 C 6.439498 3.306270 -13.580447 0
M  V30 18 C 7.625828 0.536796 -18.584005 0
M  V30 19 C 7.030843 4.949020 -10.169239 0
M  V30 20 O 5.797001 -0.011386 -15.090971 0
M  V30 21 C 8.076534 5.435567 -14.854824 0
M  V30 22 C 7.978182 5.570202 -12.532520 0 CFG=1
M  V30 23 C 6.643181 -4.253893 -17.958092 0
M  V30 24 C 6.175282 0.884306 -18.696934 0
M  V30 25 C 8.468901 4.575076 -17.079299 0
M  V30 26 C 7.544766 0.972027 -13.822866 0
M  V30 27 C 8.081180 7.061505 -12.631606 0
M  V30 28 C 5.260010 -4.027980 -18.068249 0
M  V30 29 C 4.775073 -2.724150 -18.273308 0
M  V30 30 C 8.617959 1.688373 -18.743186 0
M  V30 31 N 6.510540 3.650489 -12.136282 0 CHG=1
M  V30 32 O 5.431512 0.389919 -12.930007 0 CHG=-1
M  V30 33 H 8.323571 5.336120 -8.467023 0
M  V30 34 H 8.862429 6.127643 -9.932853 0
M  V30 35 H 9.106202 4.393898 -9.732477 0
M  V30 36 H 4.508716 -0.234479 -19.463869 0
M  V30 37 H 4.491758 -0.009993 -17.728379 0
M  V30 38 H 6.575374 3.153239 -16.046542 0
M  V30 39 H 7.273048 1.616833 -16.221044 0
M  V30 40 H 9.567225 1.384331 -16.805398 0
M  V30 41 H 10.259242 2.677717 -17.725782 0
M  V30 42 H 8.601851 -3.353720 -17.972387 0
M  V30 43 H 8.773396 6.009805 -18.602179 0
M  V30 44 H 9.239325 4.278459 -19.032178 0
M  V30 45 H 8.573764 2.771830 -13.897772 0
M  V30 46 H 7.375687 6.397832 -16.562570 0
M  V30 47 H 6.421919 6.433764 -13.935582 0
M  V30 48 H 9.051155 -0.983018 -18.307636 0
M  V30 49 H 6.181297 4.205430 -14.123329 0
M  V30 50 H 5.487414 2.789548 -13.647883 0
M  V30 51 H 6.360229 5.790865 -10.013330 0
M  V30 52 H 8.662955 4.616015 -14.515675 0
M  V30 53 H 7.015374 -5.254586 -17.796729 0
M  V30 54 H 8.243461 0.372217 -14.407077 0
M  V30 55 H 7.854664 0.876898 -12.782594 0
M  V30 56 H 9.064616 7.500342 -12.784695 0
M  V30 57 H 7.399426 7.657785 -12.027038 0
M  V30 58 H 4.570202 -4.854349 -17.992438 0
M  V30 59 H 3.712458 -2.551599 -18.358464 0
M  V30 60 H 8.170036 2.489583 -19.327619 0
M  V30 61 H 9.410635 1.302610 -19.384340 0
M  V30 62 H 8.977463 5.134964 -12.500096 0
M  V30 63 H 6.577361 4.088979 -9.675302 0
M  V30 64 H 5.988364 3.050960 -11.503895 0
M  V30 END ATOM
M  V30 BEGIN BOND
M  V30 1 1 5 3
M  V30 2 1 5 4
M  V30 3 2 8 6
M  V30 4 1 9 3
M  V30 5 1 15 8
M  V30 6 1 16 2
M  V30 7 1 16 8
M  V30 8 1 17 9
M  V30 9 2 18 15
M  V30 10 1 19 1
M  V30 11 1 19 10
M  V30 12 2 20 14
M  V30 13 2 21 11
M  V30 14 1 21 13
M  V30 15 1 22 10
M  V30 16 1 22 13
M  V30 17 1 23 6
M  V30 18 1 24 2
M  V30 19 2 24 12
M  V30 20 1 24 18
M  V30 21 1 25 5
M  V30 22 2 25 7
M  V30 23 1 25 11
M  V30 24 1 26 9
M  V30 25 1 26 14
M  V30 26 1 27 13
M  V30 27 1 27 22
M  V30 28 2 28 23
M  V30 29 2 29 16
M  V30 30 1 29 28
M  V30 31 1 30 4
M  V30 32 1 30 18
M  V30 33 2 31 10
M  V30 34 1 31 17
M  V30 35 1 32 14
M  V30 36 1 33 1
M  V30 37 1 34 1
M  V30 38 1 35 1
M  V30 39 1 36 2
M  V30 40 1 37 2
M  V30 41 1 38 3
M  V30 42 1 39 3
M  V30 43 1 40 4
M  V30 44 1 41 4
M  V30 45 1 42 6
M  V30 46 1 43 7
M  V30 47 1 44 7
M  V30 48 1 9 45 CFG=1
M  V30 49 1 46 11
M  V30 50 1 13 47 CFG=3
M  V30 51 1 48 15
M  V30 52 1 49 17
M  V30 53 1 50 17
M  V30 54 1 51 19
M  V30 55 1 52 21
M  V30 56 1 53 23
M  V30 57 1 54 26
M  V30 58 1 55 26
M  V30 59 1 56 27
M  V30 60 1 57 27
M  V30 61 1 58 28
M  V30 62 1 59 29
M  V30 63 1 60 30
M  V30 64 1 61 30
M  V30 65 1 22 62 CFG=3
M  V30 66 1 63 19
M  V30 67 1 64 31
M  V30 END BOND
M  V30 END CTAB
M  END
>  <i_epik_Tot_Q>  (1) 
0

>  <i_epik_Tot_abs_Q>  (1) 
2

>  <i_i_glide_confnum>  (1) 
82

>  <i_i_glide_lignum>  (1) 
44

>  <i_i_glide_posenum>  (1) 
394

>  <i_i_glide_rotatable_bonds>  (1) 
6

>  <i_lp_mmshare_version>  (1) 
72125

>  <i_m_source_file_index>  (1) 
26

>  <i_f3d_flags>  (1) 
0

>  <num_sample>  (1) 
100

>  <b_lp_Chiralities_Consistent>  (1) 
1

>  <r_epik_Charging_Adjusted_Penalty>  (1) 
0.12353365736142194

>  <r_epik_Ionization_Penalty>  (1) 
13.465358995569625

>  <r_epik_Ionization_Penalty_Charging>  (1) 
0.062700894571276394

>  <r_epik_Ionization_Penalty_Neutral>  (1) 
13.402658100998348

>  <r_epik_State_Penalty>  (1) 
0.060832762790145552

>  <r_glide_ring_energy>  (1) 
0

>  <r_i_docking_score>  (1) 
-3.7311034121560707

>  <r_i_glide_ecoul>  (1) 
-1.8019172141941628

>  <r_i_glide_eff_state_penalty>  (1) 
0.060832762790145552

>  <r_i_glide_einternal>  (1) 
3.6908984510196499

>  <r_i_glide_emodel>  (1) 
-39.474575395790524

>  <r_i_glide_emodel_strain>  (1) 
0.025192948910557789

>  <r_i_glide_energy>  (1) 
-33.817512676480227

>  <r_i_glide_erotb>  (1) 
0.42539970400538585

>  <r_i_glide_esite>  (1) 
-0.016946810920909307

>  <r_i_glide_evdw>  (1) 
-32.015595462286065

>  <r_i_glide_gscore>  (1) 
-3.7919361749462164

>  <r_i_glide_gscore_strain>  (1) 
0

>  <r_i_glide_hbond>  (1) 
0

>  <r_i_glide_ligand_efficiency>  (1) 
-0.11659698162987721

>  <r_i_glide_ligand_efficiency_ln>  (1) 
-0.83549576001950998

>  <r_i_glide_ligand_efficiency_sa>  (1) 
-0.37017234259116788

>  <r_i_glide_lipo>  (1) 
-1.4572261100713868

>  <r_i_glide_metal>  (1) 
-0

>  <r_i_glide_rewards>  (1) 
-0.87209560271587916

>  <r_lp_Energy>  (1) 
54.374595999999997

>  <s_epik_Chemistry_Notes>  (1) 
This compound has an imine and may undergo hydrolysis.

>  <s_epik_cmdline>  (1) 
J2VwaWtfcHl0aG9uJywgJy1waHQnLCAnMS4wJywgJy1waCcsICc3LjQnLCAnLXRuJywgJzgnLCAnLW1hJywgJzUwMCcsICctaW1hZScsICc8aW5maWxlLm1hZT4nLCAnLW9tYWUnLCAnPG91dGZpbGUubWFlPic=

>  <s_epik_input>  (1) 
W0NIM10vW0NIXT1DKFxbQ0BIXShbQ0BIXTEyKVtDSDJdMilbTkhdW0NIMl1bQ0BASF0oW0NIMl1DKD1PKVtPSF0pW0NIMl1OKEMoPVtDSDJdKS9bQ0hdPVtDSF0vMSlbQ0gyXVtDSDJdQyg9W0NIXTMpQyg9TylbQ0gyXWMoYzM0KVtjSF1bY0hdW2NIXVtjSF00

>  <s_glide_docking_method>  (1) 
confgen

>  <s_i_glide_gridfile>  (1) 
gpcr_drd2_6luq_protein_autoprepared_prepared

>  <s_lp_Force_Field>  (1) 
S-OPLS

>  <s_lp_Variant>  (1) 
DiffSBDD_25-2

>  <s_m_source_file>  (1) 
generated_generic_title2_ligand_DiffSBDD_2026-06-23_prepared.sdf

>  <GenAI_Model>  (1) 
DiffSBDD

>  <Protein>  (1) 
generic_title2

$$$$
DiffSBDD_58
     RDKit          3D

  0  0  0  0  0  0  0  0  0  0999 V3000
M  V30 BEGIN CTAB
M  V30 COUNTS 61 64 0 0 1
M  V30 BEGIN ATOM
M  V30 1 C 18.392097 8.955373 -18.446502 0
M  V30 2 C 15.025054 6.999624 -19.103422 0
M  V30 3 O 18.575403 6.390490 -17.210477 0
M  V30 4 F 18.175415 9.330765 -17.185029 0
M  V30 5 F 19.674039 8.617276 -18.585966 0
M  V30 6 F 18.159019 9.990205 -19.250250 0
M  V30 7 C 17.465697 7.787993 -18.848117 0 CFG=1
M  V30 8 C 7.600078 4.831763 -16.883159 0
M  V30 9 C 7.509027 2.448862 -17.270786 0
M  V30 10 C 7.375411 2.583856 -14.703515 0
M  V30 11 C 8.300652 3.679553 -17.518092 0 CFG=2
M  V30 12 C 12.840323 4.986478 -18.222991 0 CFG=2
M  V30 13 C 7.931847 3.989177 -14.517268 0
M  V30 14 C 15.319927 5.725798 -18.266568 0 CFG=1
M  V30 15 C 17.705954 6.483137 -18.072507 0
M  V30 16 O 7.139372 1.911569 -13.702324 0
M  V30 17 C 14.308663 4.568744 -18.520077 0 CFG=1
M  V30 18 C 17.182261 4.720226 -19.797890 0
M  V30 19 C 16.805652 5.300798 -18.418575 0 CFG=2
M  V30 20 C 12.274700 2.581094 -17.585037 0
M  V30 21 C 10.563173 4.482981 -17.683097 0 CFG=1
M  V30 22 O 9.669899 3.493309 -17.184400 0
M  V30 23 C 8.014776 4.947984 -15.465599 0
M  V30 24 C 11.091051 5.381424 -16.555025 0
M  V30 25 C 12.577324 5.617837 -16.844659 0
M  V30 26 C 7.096926 1.969799 -16.072116 0
M  V30 27 C 15.970644 8.162927 -18.746014 0
M  V30 28 C 13.672390 2.146906 -18.019627 0
M  V30 29 C 11.808774 3.850758 -18.323337 0 CFG=1
M  V30 30 C 14.677151 3.272066 -17.755971 0
M  V30 31 H 15.097830 6.774866 -20.167842 0
M  V30 32 H 14.006783 7.348784 -18.939669 0
M  V30 33 H 17.679249 7.558305 -19.891914 0
M  V30 34 H 6.516743 4.790227 -16.978625 0
M  V30 35 H 7.907252 5.751751 -17.381560 0
M  V30 36 H 7.248702 1.887685 -18.156352 0
M  V30 37 H 8.241759 3.818379 -18.599180 0
M  V30 38 H 12.540273 5.720181 -18.972120 0
M  V30 39 H 8.256460 4.238572 -13.517453 0
M  V30 40 H 15.204314 6.010600 -17.219357 0
M  V30 41 H 14.350413 4.325721 -19.582821 0
M  V30 42 H 18.250744 4.507984 -19.855709 0
M  V30 43 H 16.664501 3.781779 -19.992703 0
M  V30 44 H 16.939507 5.401050 -20.613630 0
M  V30 45 H 17.024038 4.544911 -17.666777 0
M  V30 46 H 11.564838 1.768615 -17.743661 0
M  V30 47 H 12.293913 2.770878 -16.513289 0
M  V30 48 H 10.089255 5.114075 -18.437766 0
M  V30 49 H 8.415605 5.910029 -15.181790 0
M  V30 50 H 10.540551 6.320203 -16.513181 0
M  V30 51 H 10.976901 4.894833 -15.585497 0
M  V30 52 H 12.828092 6.678760 -16.826307 0
M  V30 53 H 13.172765 5.130679 -16.071977 0
M  V30 54 H 6.543952 1.041767 -16.065351 0
M  V30 55 H 15.757816 9.006563 -19.403086 0
M  V30 56 H 15.747994 8.509114 -17.735411 0
M  V30 57 H 13.670900 1.881798 -19.077702 0
M  V30 58 H 13.966215 1.250822 -17.471527 0
M  V30 59 H 11.617787 3.598087 -19.367023 0
M  V30 60 H 15.656920 2.907184 -18.057432 0
M  V30 61 H 14.738683 3.467669 -16.684489 0
M  V30 END ATOM
M  V30 BEGIN BOND
M  V30 1 1 4 1
M  V30 2 1 5 1
M  V30 3 1 6 1
M  V30 4 1 7 1
M  V30 5 1 11 8
M  V30 6 1 11 9
M  V30 7 1 13 10
M  V30 8 1 14 2
M  V30 9 2 15 3
M  V30 10 1 15 7
M  V30 11 2 16 10
M  V30 12 1 17 12
M  V30 13 1 17 14
M  V30 14 1 19 14
M  V30 15 1 19 15
M  V30 16 1 19 18
M  V30 17 1 22 11
M  V30 18 1 22 21
M  V30 19 1 23 8
M  V30 20 2 23 13
M  V30 21 1 24 21
M  V30 22 1 25 12
M  V30 23 1 25 24
M  V30 24 2 26 9
M  V30 25 1 26 10
M  V30 26 1 27 2
M  V30 27 1 27 7
M  V30 28 1 28 20
M  V30 29 1 29 12
M  V30 30 1 29 20
M  V30 31 1 29 21
M  V30 32 1 30 17
M  V30 33 1 30 28
M  V30 34 1 31 2
M  V30 35 1 32 2
M  V30 36 1 7 33 CFG=3
M  V30 37 1 34 8
M  V30 38 1 35 8
M  V30 39 1 36 9
M  V30 40 1 11 37 CFG=3
M  V30 41 1 12 38 CFG=3
M  V30 42 1 39 13
M  V30 43 1 14 40 CFG=1
M  V30 44 1 17 41 CFG=3
M  V30 45 1 42 18
M  V30 46 1 43 18
M  V30 47 1 44 18
M  V30 48 1 19 45 CFG=1
M  V30 49 1 46 20
M  V30 50 1 47 20
M  V30 51 1 21 48 CFG=3
M  V30 52 1 49 23
M  V30 53 1 50 24
M  V30 54 1 51 24
M  V30 55 1 52 25
M  V30 56 1 53 25
M  V30 57 1 54 26
M  V30 58 1 55 27
M  V30 59 1 56 27
M  V30 60 1 57 28
M  V30 61 1 58 28
M  V30 62 1 29 59 CFG=3
M  V30 63 1 60 30
M  V30 64 1 61 30
M  V30 END BOND
M  V30 END CTAB
M  END
>  <i_epik_Tot_Q>  (1) 
0

>  <i_epik_Tot_abs_Q>  (1) 
0

>  <i_i_glide_confnum>  (1) 
8

>  <i_i_glide_lignum>  (1) 
92

>  <i_i_glide_posenum>  (1) 
275

>  <i_i_glide_rotatable_bonds>  (1) 
4

>  <i_lp_mmshare_version>  (1) 
72125

>  <i_m_source_file_index>  (1) 
59

>  <i_f3d_flags>  (1) 
0

>  <num_sample>  (1) 
100

>  <b_lp_Chiralities_Consistent>  (1) 
1

>  <r_epik_Charging_Adjusted_Penalty>  (1) 
0

>  <r_epik_Ionization_Penalty>  (1) 
2.3521434305966632e-11

>  <r_epik_Ionization_Penalty_Charging>  (1) 
0

>  <r_epik_Ionization_Penalty_Neutral>  (1) 
2.3521434305966632e-11

>  <r_epik_State_Penalty>  (1) 
-0

>  <r_glide_ring_energy>  (1) 
0

>  <r_i_docking_score>  (1) 
-3.7286118271653308

>  <r_i_glide_ecoul>  (1) 
-0.024942358795698567

>  <r_i_glide_eff_state_penalty>  (1) 
-0

>  <r_i_glide_einternal>  (1) 
11.227192970923198

>  <r_i_glide_emodel>  (1) 
-28.828556141644675

>  <r_i_glide_emodel_strain>  (1) 
0.0022161198387067316

>  <r_i_glide_energy>  (1) 
-28.136246136454346

>  <r_i_glide_erotb>  (1) 
0.33010280432778499

>  <r_i_glide_esite>  (1) 
0

>  <r_i_glide_evdw>  (1) 
-28.111303777658648

>  <r_i_glide_gscore>  (1) 
-3.7286118271653308

>  <r_i_glide_gscore_strain>  (1) 
0

>  <r_i_glide_hbond>  (1) 
0

>  <r_i_glide_ligand_efficiency>  (1) 
-0.12428706090551103

>  <r_i_glide_ligand_efficiency_ln>  (1) 
-0.8471812336117458

>  <r_i_glide_ligand_efficiency_sa>  (1) 
-0.38618879571507098

>  <r_i_glide_lipo>  (1) 
-1.1748486181782474

>  <r_i_glide_metal>  (1) 
-0

>  <r_i_glide_rewards>  (1) 
-1.4745594706125813

>  <r_lp_Energy>  (1) 
29.975919999999999

>  <r_lp_tautomer_probability>  (1) 
1

>  <s_epik_cmdline>  (1) 
J2VwaWtfcHl0aG9uJywgJy1waHQnLCAnMS4wJywgJy1waCcsICc3LjQnLCAnLXRuJywgJzgnLCAnLW1hJywgJzUwMCcsICctaW1hZScsICc8aW5maWxlLm1hZT4nLCAnLW9tYWUnLCAnPG91dGZpbGUubWFlPic=

>  <s_epik_input>  (1) 
RkMoRikoRilbQ0BIXTFDKD1PKVtDQEhdKFtDSDNdKVtDQEBIXShbQ0gyXVtDSDJdMSlbQ0BIXTJbQ0gyXVtDSDJdW0NIMl1bQ0BIXShbQ0BIXTIzKVtDQEhdKFtDSDJdW0NIMl0zKU9bQ0BASF0oW0NIXT1bQ0hdNClbQ0gyXVtDSF09W0NIXUM0PU8=

>  <s_glide_docking_method>  (1) 
confgen

>  <s_i_glide_gridfile>  (1) 
gpcr_drd2_6luq_protein_autoprepared_prepared

>  <s_lp_Force_Field>  (1) 
S-OPLS

>  <s_lp_Variant>  (1) 
DiffSBDD_58-1

>  <s_m_source_file>  (1) 
generated_generic_title2_ligand_DiffSBDD_2026-06-23_prepared.sdf

>  <GenAI_Model>  (1) 
DiffSBDD

>  <Protein>  (1) 
generic_title2

$$$$
DiffSBDD_2
     RDKit          3D

  0  0  0  0  0  0  0  0  0  0999 V3000
M  V30 BEGIN CTAB
M  V30 COUNTS 71 75 0 0 1
M  V30 BEGIN ATOM
M  V30 1 C 8.797172 6.011869 -11.384629 0
M  V30 2 N 8.081004 4.021538 -16.026236 0 CFG=2 CHG=1
M  V30 3 C 10.769290 3.579400 -17.539938 0
M  V30 4 C 6.364037 6.662806 -19.413971 0
M  V30 5 C 8.207088 2.294170 -20.180953 0
M  V30 6 C 10.574192 6.977438 -8.099775 0 CFG=1
M  V30 7 C 7.127408 4.547964 -20.654579 0
M  V30 8 O 6.454841 6.497850 -13.784317 0
M  V30 9 C 9.644463 6.301970 -9.093331 0
M  V30 10 C 7.603692 3.063777 -13.746642 0 CFG=2
M  V30 11 C 8.030468 5.073502 -18.336902 0
M  V30 12 C 6.900515 5.412311 -14.152896 0
M  V30 13 C 9.442270 1.464520 -17.561585 0
M  V30 14 C 10.160366 7.198300 -6.661195 0
M  V30 15 O 10.996988 6.099471 -7.046219 0
M  V30 16 O 6.796440 2.004432 -13.263137 0
M  V30 17 O 8.849479 5.989601 -18.274910 0
M  V30 18 C 10.735290 7.590208 -11.013418 0
M  V30 19 C 11.701643 8.132619 -9.985028 0
M  V30 20 C 7.174975 3.025657 -20.644951 0
M  V30 21 C 4.904917 6.804162 -19.863187 0
M  V30 22 F 12.537627 8.390141 -7.859722 0
M  V30 23 C 7.775417 4.790280 -9.546637 0
M  V30 24 C 7.241777 5.200373 -15.639069 0
M  V30 25 C 9.706897 6.607626 -10.485084 0
M  V30 26 C 9.445998 2.939825 -18.023689 0
M  V30 27 C 6.820290 5.190952 -19.279091 0 CFG=1
M  V30 28 C 7.820452 5.114083 -10.912462 0
M  V30 29 C 8.678725 5.374698 -8.643399 0
M  V30 30 C 8.173687 3.753270 -17.521986 0 CFG=1
M  V30 31 C 6.785059 4.510688 -11.860396 0
M  V30 32 N 7.110793 4.378852 -13.296006 0
M  V30 33 C 11.622333 7.851691 -8.683242 0
M  V30 34 C 9.481709 2.879002 -19.585030 0
M  V30 35 C 7.590124 2.847898 -15.270592 0
M  V30 36 H 8.840062 6.265102 -12.431267 0
M  V30 37 H 11.628827 2.988477 -17.859659 0
M  V30 38 H 10.920771 4.582713 -17.935977 0
M  V30 39 H 10.819244 3.646334 -16.453582 0
M  V30 40 H 6.463890 7.177284 -18.456389 0
M  V30 41 H 7.014960 7.194630 -20.109919 0
M  V30 42 H 8.144672 1.215508 -20.211605 0
M  V30 43 H 6.361066 4.824861 -21.377696 0
M  V30 44 H 8.055873 4.946884 -21.064858 0
M  V30 45 H 8.613813 2.942767 -13.353859 0
M  V30 46 H 10.136643 0.857082 -18.143603 0
M  V30 47 H 9.775640 1.359000 -16.535910 0
M  V30 48 H 8.457407 1.005314 -17.656514 0
M  V30 49 H 10.669716 7.948821 -6.060434 0
M  V30 50 H 9.151568 6.933445 -6.350961 0
M  V30 51 H 7.346571 1.362402 -12.836189 0
M  V30 52 H 11.309302 7.104501 -11.802805 0
M  V30 53 H 10.175862 8.400837 -11.475113 0
M  V30 54 H 12.487512 8.779645 -10.347823 0
M  V30 55 H 6.305859 2.518595 -21.040487 0
M  V30 56 H 4.613952 7.854228 -19.909724 0
M  V30 57 H 4.739773 6.373852 -20.850639 0
M  V30 58 H 4.231061 6.307763 -19.164506 0
M  V30 59 H 7.026497 4.101216 -9.184196 0
M  V30 60 H 6.287631 5.171829 -16.167931 0
M  V30 61 H 7.746233 6.118478 -15.935882 0
M  V30 62 H 6.002769 4.640164 -18.813286 0
M  V30 63 H 8.616252 5.127514 -7.594789 0
M  V30 64 H 7.295179 3.154147 -17.763330 0
M  V30 65 H 5.885394 5.119613 -11.752396 0
M  V30 66 H 6.478724 3.557578 -11.438898 0
M  V30 67 H 10.313644 2.260346 -19.925134 0
M  V30 68 H 9.699691 3.853967 -20.019358 0
M  V30 69 H 8.141505 1.940694 -15.464733 0
M  V30 70 H 6.575348 2.643769 -15.610956 0
M  V30 71 H 9.018898 4.226665 -15.710541 0
M  V30 END ATOM
M  V30 BEGIN BOND
M  V30 1 1 9 6
M  V30 2 2 12 8
M  V30 3 1 14 6
M  V30 4 1 6 15 CFG=1
M  V30 5 1 15 14
M  V30 6 1 16 10
M  V30 7 2 17 11
M  V30 8 1 19 18
M  V30 9 2 20 5
M  V30 10 1 20 7
M  V30 11 1 21 4
M  V30 12 1 24 2
M  V30 13 1 24 12
M  V30 14 1 25 1
M  V30 15 2 25 9
M  V30 16 1 25 18
M  V30 17 1 26 3
M  V30 18 1 26 13
M  V30 19 1 27 4
M  V30 20 1 27 7
M  V30 21 1 27 11
M  V30 22 2 28 1
M  V30 23 1 28 23
M  V30 24 1 29 9
M  V30 25 2 29 23
M  V30 26 1 30 2
M  V30 27 1 30 11
M  V30 28 1 30 26
M  V30 29 1 31 28
M  V30 30 1 32 10
M  V30 31 1 32 12
M  V30 32 1 32 31
M  V30 33 1 33 6
M  V30 34 2 33 19
M  V30 35 1 33 22
M  V30 36 1 34 5
M  V30 37 1 34 26
M  V30 38 1 35 2
M  V30 39 1 35 10
M  V30 40 1 36 1
M  V30 41 1 37 3
M  V30 42 1 38 3
M  V30 43 1 39 3
M  V30 44 1 40 4
M  V30 45 1 41 4
M  V30 46 1 42 5
M  V30 47 1 43 7
M  V30 48 1 44 7
M  V30 49 1 10 45 CFG=1
M  V30 50 1 46 13
M  V30 51 1 47 13
M  V30 52 1 48 13
M  V30 53 1 49 14
M  V30 54 1 50 14
M  V30 55 1 51 16
M  V30 56 1 52 18
M  V30 57 1 53 18
M  V30 58 1 54 19
M  V30 59 1 55 20
M  V30 60 1 56 21
M  V30 61 1 57 21
M  V30 62 1 58 21
M  V30 63 1 59 23
M  V30 64 1 60 24
M  V30 65 1 61 24
M  V30 66 1 27 62 CFG=1
M  V30 67 1 63 29
M  V30 68 1 30 64 CFG=3
M  V30 69 1 65 31
M  V30 70 1 66 31
M  V30 71 1 67 34
M  V30 72 1 68 34
M  V30 73 1 69 35
M  V30 74 1 70 35
M  V30 75 1 2 71 CFG=1
M  V30 END BOND
M  V30 END CTAB
M  END
>  <i_epik_Tot_Q>  (1) 
1

>  <i_epik_Tot_abs_Q>  (1) 
1

>  <i_i_glide_confnum>  (1) 
24

>  <i_i_glide_lignum>  (1) 
5

>  <i_i_glide_posenum>  (1) 
45

>  <i_i_glide_rotatable_bonds>  (1) 
5

>  <i_lp_mmshare_version>  (1) 
72125

>  <i_m_source_file_index>  (1) 
3

>  <i_f3d_flags>  (1) 
0

>  <num_sample>  (1) 
100

>  <b_lp_Chiralities_Consistent>  (1) 
1

>  <r_epik_Charging_Adjusted_Penalty>  (1) 
2.4002963273514464

>  <r_epik_Ionization_Penalty>  (1) 
1.2026340853706476

>  <r_epik_Ionization_Penalty_Charging>  (1) 
1.2001481636757232

>  <r_epik_Ionization_Penalty_Neutral>  (1) 
0.0024859216949244217

>  <r_epik_State_Penalty>  (1) 
1.2001481636757232

>  <r_glide_ring_energy>  (1) 
0

>  <r_i_docking_score>  (1) 
-3.7284136441704154

>  <r_i_glide_ecoul>  (1) 
-0.57166116385201438

>  <r_i_glide_eff_state_penalty>  (1) 
1.2001481636757232

>  <r_i_glide_einternal>  (1) 
10.106917856256718

>  <r_i_glide_emodel>  (1) 
-39.866929777982548

>  <r_i_glide_emodel_strain>  (1) 
0.94945642064844549

>  <r_i_glide_energy>  (1) 
-36.957482145860048

>  <r_i_glide_erotb>  (1) 
0.26041846348708686

>  <r_i_glide_esite>  (1) 
0

>  <r_i_glide_evdw>  (1) 
-36.385820982008035

>  <r_i_glide_gscore>  (1) 
-4.9285618078461386

>  <r_i_glide_gscore_strain>  (1) 
0

>  <r_i_glide_hbond>  (1) 
0

>  <r_i_glide_ligand_efficiency>  (1) 
-0.10652610411915472

>  <r_i_glide_ligand_efficiency_ln>  (1) 
-0.81846954257791138

>  <r_i_glide_ligand_efficiency_sa>  (1) 
-0.34845395033980903

>  <r_i_glide_lipo>  (1) 
-1.3926230055915305

>  <r_i_glide_metal>  (1) 
-0

>  <r_i_glide_rewards>  (1) 
-1.8913170420634904

>  <r_lp_Energy>  (1) 
76.336466000000001

>  <r_lp_tautomer_probability>  (1) 
0.99995000000000001

>  <s_epik_Chemistry_Notes>  (1) 
This compound contains an acetal/aminal-like group ( X-CH(R)-Y where X, Y are N, S, or O) that may be acid/base labile, releasing an aldehyde.

>  <s_epik_cmdline>  (1) 
J2VwaWtfcHl0aG9uJywgJy1waHQnLCAnMS4wJywgJy1waCcsICc3LjQnLCAnLXRuJywgJzgnLCAnLW1hJywgJzUwMCcsICctaW1hZScsICc8aW5maWxlLm1hZT4nLCAnLW9tYWUnLCAnPG91dGZpbGUubWFlPic=

>  <s_epik_input>  (1) 
TzFbQ0gyXVtDQF0xMmMzYyhbQ0gyXVtDSF09QzJGKVtjSF1jKFtjSF1bY0hdMylbQ0gyXU4oW0NAQEhdKFtPSF0pW0NIMl00KUMoPU8pW0NIMl1ONFtDQEhdKEM1KFtDSDNdKVtDSDNdKUMoPU8pW0NAQEhdKFtDSDJdW0NIM10pW0NIMl0vW0NIXT1bQ0hdXFtDSDJdNQ==

>  <s_glide_docking_method>  (1) 
confgen

>  <s_i_glide_gridfile>  (1) 
gpcr_drd2_6luq_protein_autoprepared_prepared

>  <s_lp_Force_Field>  (1) 
S-OPLS

>  <s_lp_Variant>  (1) 
DiffSBDD_2-2

>  <s_m_source_file>  (1) 
generated_generic_title2_ligand_DiffSBDD_2026-06-23_prepared.sdf

>  <GenAI_Model>  (1) 
DiffSBDD

>  <Protein>  (1) 
generic_title2

$$$$
DiffSBDD_90
     RDKit          3D

  0  0  0  0  0  0  0  0  0  0999 V3000
M  V30 BEGIN CTAB
M  V30 COUNTS 80 84 0 0 1
M  V30 BEGIN ATOM
M  V30 1 C 6.911122 7.355413 -12.457745 0
M  V30 2 C 8.256974 6.683237 -12.713039 0 CFG=1
M  V30 3 C 10.063861 7.640469 -9.717771 0
M  V30 4 C 9.558730 5.419966 -17.238698 0 CFG=2
M  V30 5 C 10.666075 7.190168 -11.763425 0
M  V30 6 C 10.228960 8.014192 -8.347137 0 CFG=2
M  V30 7 C 6.418253 4.652671 -15.011711 0 CFG=2
M  V30 8 O 6.233751 7.531330 -14.784349 0
M  V30 9 C 6.063953 6.787551 -13.598016 0 CFG=1
M  V30 10 C 10.644908 3.281266 -18.406589 0
M  V30 11 O 7.828173 4.825813 -21.707588 0
M  V30 12 C 9.292497 7.032063 -11.693171 0
M  V30 13 C 7.732897 4.256264 -11.880511 0 CFG=2
M  V30 14 O 7.508443 3.363791 -20.033001 0 CHG=-1
M  V30 15 O 10.855666 5.539536 -16.706177 0
M  V30 16 C 7.197179 4.971894 -16.351999 0 CFG=2
M  V30 17 N 8.640468 5.170656 -16.115057 0
M  V30 18 N 6.618719 5.454018 -13.802950 0
M  V30 19 C 11.098534 6.512356 -19.869074 0
M  V30 20 C 6.601482 6.052399 -17.301752 0
M  V30 21 O 8.615495 4.390305 -10.785629 0
M  V30 22 O 5.194782 6.120156 -17.282133 0
M  V30 23 O 7.982736 1.580956 -13.429139 0
M  V30 24 C 8.528352 3.910703 -13.110322 0 CFG=1
M  V30 25 C 8.086626 4.323664 -20.590785 0
M  V30 26 C 6.575451 3.169722 -14.594295 0
M  V30 27 N 11.052497 7.590005 -10.509786 0
M  V30 28 O 11.969243 5.955782 -19.205481 0
M  V30 29 C 11.805350 8.264527 -8.482861 0
M  V30 30 N 8.975415 7.316686 -10.390975 0 CHG=1
M  V30 31 C 9.538588 4.362056 -18.399867 0 CFG=2
M  V30 32 O 10.575122 7.720126 -5.477680 0
M  V30 33 O 9.907234 6.911996 -7.521180 0
M  V30 34 C 9.505210 7.275127 -6.251225 0
M  V30 35 C 11.271343 7.971393 -20.282537 0
M  V30 36 C 9.244748 4.964160 -19.823704 0
M  V30 37 C 7.973117 2.845253 -14.060000 0 CFG=2
M  V30 38 C 11.337162 6.652222 -4.938822 0
M  V30 39 N 9.915464 5.951317 -20.327523 0
M  V30 40 C 12.319437 7.944810 -9.969349 0
M  V30 41 C 7.824822 5.264344 -13.017080 0 CFG=1
M  V30 42 H 6.484297 6.997105 -11.523571 0
M  V30 43 H 6.975672 8.433570 -12.384922 0
M  V30 44 H 8.575358 7.117714 -13.639354 0
M  V30 45 H 9.316295 6.389650 -17.667971 0
M  V30 46 H 11.360363 7.080167 -12.584802 0
M  V30 47 H 9.629541 8.912135 -8.190152 0
M  V30 48 H 5.375481 4.790193 -15.238447 0
M  V30 49 H 7.138320 7.797366 -14.851018 0
M  V30 50 H 5.004640 6.742668 -13.339503 0
M  V30 51 H 10.434681 2.522433 -19.163772 0
M  V30 52 H 11.642701 3.657617 -18.607457 0
M  V30 53 H 10.677990 2.764134 -17.448210 0
M  V30 54 H 6.791311 3.754183 -11.663022 0
M  V30 55 H 11.453305 5.631451 -17.438160 0
M  V30 56 H 7.073031 4.056375 -16.925591 0
M  V30 57 H 8.999431 4.392112 -15.576100 0
M  V30 58 H 6.900947 5.845376 -18.328994 0
M  V30 59 H 6.975535 7.049899 -17.091751 0
M  V30 60 H 9.502222 4.275792 -11.094722 0
M  V30 61 H 4.953876 6.580322 -16.490287 0
M  V30 62 H 8.803227 1.460492 -12.974214 0
M  V30 63 H 9.613774 3.911272 -13.016064 0
M  V30 64 H 5.831936 2.946295 -13.827180 0
M  V30 65 H 6.361148 2.499287 -15.427372 0
M  V30 66 H 12.034521 9.297718 -8.223121 0
M  V30 67 H 12.338755 7.646646 -7.757541 0
M  V30 68 H 8.700178 3.732040 -18.138039 0
M  V30 69 H 8.737883 8.052137 -6.309452 0
M  V30 70 H 9.036194 6.398513 -5.800935 0
M  V30 71 H 10.577854 8.602762 -19.729818 0
M  V30 72 H 12.281606 8.322997 -20.070964 0
M  V30 73 H 11.080980 8.096849 -21.349040 0
M  V30 74 H 8.575276 2.775318 -14.953291 0
M  V30 75 H 12.164344 7.057452 -4.356032 0
M  V30 76 H 10.732349 6.037365 -4.266620 0
M  V30 77 H 11.744711 6.015727 -5.726535 0
M  V30 78 H 12.975313 7.093068 -9.984712 0
M  V30 79 H 12.732011 8.804499 -10.498919 0
M  V30 80 H 8.010610 7.333852 -9.988389 0
M  V30 END ATOM
M  V30 BEGIN BOND
M  V30 1 1 2 1
M  V30 2 1 6 3
M  V30 3 1 9 1
M  V30 4 1 9 8
M  V30 5 1 12 2
M  V30 6 2 12 5
M  V30 7 1 15 4
M  V30 8 1 16 7
M  V30 9 1 17 4
M  V30 10 1 17 16
M  V30 11 1 18 7
M  V30 12 1 18 9
M  V30 13 1 20 16
M  V30 14 1 21 13
M  V30 15 1 22 20
M  V30 16 1 24 13
M  V30 17 2 25 11
M  V30 18 1 25 14
M  V30 19 1 26 7
M  V30 20 1 27 3
M  V30 21 1 27 5
M  V30 22 2 28 19
M  V30 23 1 29 6
M  V30 24 2 30 3
M  V30 25 1 30 12
M  V30 26 1 31 4
M  V30 27 1 31 10
M  V30 28 1 33 6
M  V30 29 1 34 32
M  V30 30 1 34 33
M  V30 31 1 35 19
M  V30 32 1 36 25
M  V30 33 1 36 31
M  V30 34 1 37 23
M  V30 35 1 37 24
M  V30 36 1 37 26
M  V30 37 1 38 32
M  V30 38 1 39 19
M  V30 39 2 39 36
M  V30 40 1 40 27
M  V30 41 1 40 29
M  V30 42 1 41 2
M  V30 43 1 41 13
M  V30 44 1 41 18 CFG=3
M  V30 45 1 41 24
M  V30 46 1 42 1
M  V30 47 1 43 1
M  V30 48 1 2 44 CFG=3
M  V30 49 1 4 45 CFG=3
M  V30 50 1 46 5
M  V30 51 1 6 47 CFG=1
M  V30 52 1 7 48 CFG=3
M  V30 53 1 49 8
M  V30 54 1 9 50 CFG=1
M  V30 55 1 51 10
M  V30 56 1 52 10
M  V30 57 1 53 10
M  V30 58 1 13 54 CFG=1
M  V30 59 1 55 15
M  V30 60 1 16 56 CFG=3
M  V30 61 1 57 17
M  V30 62 1 58 20
M  V30 63 1 59 20
M  V30 64 1 60 21
M  V30 65 1 61 22
M  V30 66 1 62 23
M  V30 67 1 24 63 CFG=1
M  V30 68 1 64 26
M  V30 69 1 65 26
M  V30 70 1 66 29
M  V30 71 1 67 29
M  V30 72 1 31 68 CFG=1
M  V30 73 1 69 34
M  V30 74 1 70 34
M  V30 75 1 71 35
M  V30 76 1 72 35
M  V30 77 1 73 35
M  V30 78 1 37 74 CFG=3
M  V30 79 1 75 38
M  V30 80 1 76 38
M  V30 81 1 77 38
M  V30 82 1 78 40
M  V30 83 1 79 40
M  V30 84 1 80 30
M  V30 END BOND
M  V30 END CTAB
M  END
>  <i_epik_Tot_Q>  (1) 
0

>  <i_epik_Tot_abs_Q>  (1) 
2

>  <i_i_glide_confnum>  (1) 
3015

>  <i_i_glide_lignum>  (1) 
172

>  <i_i_glide_posenum>  (1) 
6

>  <i_i_glide_rotatable_bonds>  (1) 
17

>  <i_lp_mmshare_version>  (1) 
72125

>  <i_m_source_file_index>  (1) 
91

>  <i_f3d_flags>  (1) 
0

>  <num_sample>  (1) 
100

>  <b_lp_Chiralities_Consistent>  (1) 
1

>  <r_epik_Charging_Adjusted_Penalty>  (1) 
1.2730775069092737

>  <r_epik_Ionization_Penalty>  (1) 
0.33079184029548347

>  <r_epik_Ionization_Penalty_Charging>  (1) 
4.3976256739559524e-06

>  <r_epik_Ionization_Penalty_Neutral>  (1) 
0.33078744266980953

>  <r_epik_State_Penalty>  (1) 
1.2730731092835996

>  <r_glide_ring_energy>  (1) 
0

>  <r_i_docking_score>  (1) 
-3.7216197654706185

>  <r_i_glide_ecoul>  (1) 
-10.286676510208139

>  <r_i_glide_eff_state_penalty>  (1) 
1.2730731092835996

>  <r_i_glide_einternal>  (1) 
15.169093325359235

>  <r_i_glide_emodel>  (1) 
-44.594585499305509

>  <r_i_glide_emodel_strain>  (1) 
3.413377003258006

>  <r_i_glide_energy>  (1) 
-42.535573996360853

>  <r_i_glide_erotb>  (1) 
0.57888693115673628

>  <r_i_glide_esite>  (1) 
-0.20216164507641854

>  <r_i_glide_evdw>  (1) 
-32.248897486152714

>  <r_i_glide_gscore>  (1) 
-4.9946928747542181

>  <r_i_glide_gscore_strain>  (1) 
0

>  <r_i_glide_hbond>  (1) 
-0.098455279416181984

>  <r_i_glide_ligand_efficiency>  (1) 
-0.090771213791966301

>  <r_i_glide_ligand_efficiency_ln>  (1) 
-0.78955401822735793

>  <r_i_glide_ligand_efficiency_sa>  (1) 
-0.3129988643279249

>  <r_i_glide_lipo>  (1) 
-1.6067997378693304

>  <r_i_glide_metal>  (1) 
-0

>  <r_i_glide_rewards>  (1) 
-0.51071679271016668

>  <r_lp_Energy>  (1) 
62.565444999999997

>  <s_epik_Chemistry_Notes>  (1) 
This compound has an imine and may undergo hydrolysis. This compound contains an acetal/aminal-like group ( X-CH(R)-Y where X, Y are N, S, or O) that may be acid/base labile, releasing an aldehyde.

>  <s_epik_cmdline>  (1) 
J2VwaWtfcHl0aG9uJywgJy1waHQnLCAnMS4wJywgJy1waCcsICc3LjQnLCAnLXRuJywgJzgnLCAnLW1hJywgJzUwMCcsICctaW1hZScsICc8aW5maWxlLm1hZT4nLCAnLW9tYWUnLCAnPG91dGZpbGUubWFlPic=

>  <s_epik_input>  (1) 
W0NIM11PW0NIMl1PW0NASF0xW0NIMl1bQ0gyXW4oYzEyKVtjSF1jKG4yKVtDQEBIXTNbQ0gyXVtDQEBIXShbT0hdKU4oW0NAQF0zNDUpW0NASF0oW0NIMl1bQ0BIXShbT0hdKVtDQEBIXTVbQ0BIXTRbT0hdKVtDQEBIXShbQ0gyXVtPSF0pW05IXVtDQEBIXShbT0hdKVtDQEhdKFtDSDNdKUMoXEMoPU8pW09IXSk9Ti9DKD1PKVtDSDNd

>  <s_glide_docking_method>  (1) 
confgen

>  <s_i_glide_gridfile>  (1) 
gpcr_drd2_6luq_protein_autoprepared_prepared

>  <s_lp_Force_Field>  (1) 
S-OPLS

>  <s_lp_Variant>  (1) 
DiffSBDD_90-7

>  <s_m_source_file>  (1) 
generated_generic_title2_ligand_DiffSBDD_2026-06-23_prepared.sdf

>  <GenAI_Model>  (1) 
DiffSBDD

>  <Protein>  (1) 
generic_title2

$$$$
DiffSBDD_93
     RDKit          3D

  0  0  0  0  0  0  0  0  0  0999 V3000
M  V30 BEGIN CTAB
M  V30 COUNTS 69 73 0 0 1
M  V30 BEGIN ATOM
M  V30 1 C 8.004554 5.464971 -11.608107 0 CFG=1
M  V30 2 C 4.875502 7.671740 -19.262331 0
M  V30 3 C 10.484222 7.985088 -8.427812 0
M  V30 4 O 6.710674 9.099138 -23.354916 0
M  V30 5 C 7.086645 3.594482 -13.141615 0
M  V30 6 C 7.535598 2.790785 -14.367797 0
M  V30 7 C 7.093872 7.365600 -20.995684 0
M  V30 8 C 6.942713 7.886774 -12.321778 0
M  V30 9 N 8.036556 4.700826 -12.872340 0 CFG=1 CHG=1
M  V30 10 C 7.050609 6.630744 -19.784535 0
M  V30 11 C 4.976315 8.369360 -20.474189 0
M  V30 12 C 9.093458 5.534463 -8.410170 0
M  V30 13 C 9.374288 5.237830 -10.940751 0 CFG=1
M  V30 14 C 5.899239 9.028887 -22.435984 0
M  V30 15 C 10.302428 7.275587 -9.631635 0
M  V30 16 C 5.469965 7.559360 -12.008718 0
M  V30 17 O 10.325417 5.452869 -11.985021 0
M  V30 18 C 7.926541 6.752337 -12.458100 0 CFG=2
M  V30 19 C 5.926749 6.787529 -18.899108 0
M  V30 20 C 6.025721 8.220410 -21.282915 0
M  V30 21 C 9.971765 7.477154 -7.223475 0
M  V30 22 N 4.731677 9.684985 -22.310531 0
M  V30 23 C 3.930216 9.369978 -21.022672 0
M  V30 24 C 7.008065 5.291371 -17.283264 0
M  V30 25 N 5.850817 6.084269 -17.680671 0
M  V30 26 C 8.005812 5.900545 -13.721252 0 CFG=2
M  V30 27 C 6.933401 4.817294 -15.818227 0 CFG=2
M  V30 28 C 9.597704 6.037895 -9.630502 0
M  V30 29 C 6.949769 5.985989 -14.814968 0
M  V30 30 O 10.808550 7.785168 -10.785252 0
M  V30 31 C 6.848962 5.009981 -10.691667 0
M  V30 32 C 7.929909 3.665294 -15.571489 0
M  V30 33 C 9.279440 6.255964 -7.213455 0
M  V30 34 H 4.018798 7.807964 -18.618183 0
M  V30 35 H 11.017548 8.923952 -8.429665 0
M  V30 36 H 6.069472 3.968565 -13.256921 0
M  V30 37 H 7.064425 2.900444 -12.306132 0
M  V30 38 H 8.372685 2.145473 -14.098119 0
M  V30 39 H 6.726153 2.117452 -14.653586 0
M  V30 40 H 7.927530 7.267313 -21.676363 0
M  V30 41 H 7.062016 8.389893 -13.272843 0
M  V30 42 H 7.299962 8.605335 -11.585005 0
M  V30 43 H 7.860120 5.962992 -19.536660 0
M  V30 44 H 8.557803 4.597671 -8.392662 0
M  V30 45 H 9.473222 4.183316 -10.674552 0
M  V30 46 H 4.835239 8.432723 -12.145425 0
M  V30 47 H 5.343681 7.256528 -10.971626 0
M  V30 48 H 5.058839 6.769248 -12.628532 0
M  V30 49 H 10.594583 6.364042 -11.906315 0
M  V30 50 H 8.881962 7.272349 -12.417990 0
M  V30 51 H 10.109408 8.026300 -6.303941 0
M  V30 52 H 4.388851 10.334820 -23.002280 0
M  V30 53 H 2.975515 8.892946 -21.238086 0
M  V30 54 H 3.803487 10.244085 -20.384966 0
M  V30 55 H 7.062864 4.430457 -17.950647 0
M  V30 56 H 7.927731 5.864947 -17.408067 0
M  V30 57 H 5.109557 6.267986 -17.019812 0
M  V30 58 H 8.997028 5.990208 -14.162929 0
M  V30 59 H 5.971489 4.390244 -15.585027 0
M  V30 60 H 5.954598 6.077553 -14.389924 0
M  V30 61 H 7.089998 6.924948 -15.351479 0
M  V30 62 H 11.218876 8.626933 -10.651462 0
M  V30 63 H 6.778255 5.590477 -9.779915 0
M  V30 64 H 6.987739 3.990217 -10.344824 0
M  V30 65 H 5.874797 5.049966 -11.174823 0
M  V30 66 H 8.945548 4.048862 -15.470488 0
M  V30 67 H 7.963976 3.010870 -16.443298 0
M  V30 68 H 8.885026 5.872357 -6.286369 0
M  V30 69 H 8.984046 4.341806 -12.918012 0
M  V30 END ATOM
M  V30 BEGIN BOND
M  V30 1 1 6 5
M  V30 2 1 9 1
M  V30 3 1 9 5
M  V30 4 2 10 7
M  V30 5 1 11 2
M  V30 6 1 13 1
M  V30 7 2 14 4
M  V30 8 2 15 3
M  V30 9 1 16 8
M  V30 10 1 17 13
M  V30 11 1 18 1
M  V30 12 1 18 8
M  V30 13 2 19 2
M  V30 14 1 19 10
M  V30 15 1 20 7
M  V30 16 2 20 11
M  V30 17 1 20 14
M  V30 18 1 21 3
M  V30 19 1 22 14
M  V30 20 1 23 11
M  V30 21 1 23 22
M  V30 22 1 25 19
M  V30 23 1 25 24
M  V30 24 1 26 9
M  V30 25 1 26 18
M  V30 26 1 27 24
M  V30 27 2 28 12
M  V30 28 1 28 13
M  V30 29 1 28 15
M  V30 30 1 29 26
M  V30 31 1 29 27
M  V30 32 1 30 15
M  V30 33 1 1 31 CFG=1
M  V30 34 1 32 6
M  V30 35 1 32 27
M  V30 36 1 33 12
M  V30 37 2 33 21
M  V30 38 1 34 2
M  V30 39 1 35 3
M  V30 40 1 36 5
M  V30 41 1 37 5
M  V30 42 1 38 6
M  V30 43 1 39 6
M  V30 44 1 40 7
M  V30 45 1 41 8
M  V30 46 1 42 8
M  V30 47 1 43 10
M  V30 48 1 44 12
M  V30 49 1 13 45 CFG=1
M  V30 50 1 46 16
M  V30 51 1 47 16
M  V30 52 1 48 16
M  V30 53 1 49 17
M  V30 54 1 18 50 CFG=1
M  V30 55 1 51 21
M  V30 56 1 52 22
M  V30 57 1 53 23
M  V30 58 1 54 23
M  V30 59 1 55 24
M  V30 60 1 56 24
M  V30 61 1 57 25
M  V30 62 1 26 58 CFG=3
M  V30 63 1 27 59 CFG=3
M  V30 64 1 60 29
M  V30 65 1 61 29
M  V30 66 1 62 30
M  V30 67 1 63 31
M  V30 68 1 64 31
M  V30 69 1 65 31
M  V30 70 1 66 32
M  V30 71 1 67 32
M  V30 72 1 68 33
M  V30 73 1 9 69 CFG=1
M  V30 END BOND
M  V30 END CTAB
M  END
>  <i_epik_Tot_Q>  (1) 
1

>  <i_epik_Tot_abs_Q>  (1) 
1

>  <i_i_glide_confnum>  (1) 
105

>  <i_i_glide_lignum>  (1) 
176

>  <i_i_glide_posenum>  (1) 
101

>  <i_i_glide_rotatable_bonds>  (1) 
8

>  <i_lp_mmshare_version>  (1) 
72125

>  <i_m_source_file_index>  (1) 
94

>  <i_f3d_flags>  (1) 
0

>  <num_sample>  (1) 
100

>  <b_lp_Chiralities_Consistent>  (1) 
1

>  <r_epik_Charging_Adjusted_Penalty>  (1) 
0.009895405337619817

>  <r_epik_Ionization_Penalty>  (1) 
0.010018489252536679

>  <r_epik_Ionization_Penalty_Charging>  (1) 
0.00060073207358730301

>  <r_epik_Ionization_Penalty_Neutral>  (1) 
0.0094177571789493767

>  <r_epik_State_Penalty>  (1) 
0.0092946732640325144

>  <r_glide_ring_energy>  (1) 
0

>  <r_i_docking_score>  (1) 
-3.7209812190902642

>  <r_i_glide_ecoul>  (1) 
0.22113725740568246

>  <r_i_glide_eff_state_penalty>  (1) 
0.0092946732640325144

>  <r_i_glide_einternal>  (1) 
4.1961720546048085

>  <r_i_glide_emodel>  (1) 
-21.886031059842022

>  <r_i_glide_emodel_strain>  (1) 
4.6226904398937734

>  <r_i_glide_energy>  (1) 
-27.635420450488958

>  <r_i_glide_erotb>  (1) 
0.49373930985115227

>  <r_i_glide_esite>  (1) 
0

>  <r_i_glide_evdw>  (1) 
-27.856557707894641

>  <r_i_glide_gscore>  (1) 
-3.7302758923542969

>  <r_i_glide_gscore_strain>  (1) 
0.15567260997344334

>  <r_i_glide_hbond>  (1) 
0

>  <r_i_glide_ligand_efficiency>  (1) 
-0.11275700663909892

>  <r_i_glide_ligand_efficiency_ln>  (1) 
-0.82752695691602762

>  <r_i_glide_ligand_efficiency_sa>  (1) 
-0.36167196974247712

>  <r_i_glide_lipo>  (1) 
-1.9635725351220923

>  <r_i_glide_metal>  (1) 
-0

>  <r_i_glide_rewards>  (1) 
-1.0564579802729201

>  <r_lp_Energy>  (1) 
50.168202999999998

>  <r_lp_tautomer_probability>  (1) 
0.99999999999736477

>  <s_epik_cmdline>  (1) 
J2VwaWtfcHl0aG9uJywgJy1waHQnLCAnMS4wJywgJy1waCcsICc3LjQnLCAnLXRuJywgJzgnLCAnLW1hJywgJzUwMCcsICctaW1hZScsICc8aW5maWxlLm1hZT4nLCAnLW9tYWUnLCAnPG91dGZpbGUubWFlPic=

>  <s_epik_input>  (1) 
W09IXWMxW2NIXVtjSF1bY0hdW2NIXWMxW0NASF0oW09IXSlbQ0BAXTIoW0NIM10pW0NASF0oW0NIMl1bQ0gzXSlbQ0BASF0oTjIzKVtDSDJdW0NASF0oW0NIMl1bQ0gyXVtDSDJdMylbQ0gyXVtOSF1jKFtjSF00KVtjSF1bY0hdYyhjNDUpQyg9TylbTkhdW0NIMl01

>  <s_glide_docking_method>  (1) 
confgen

>  <s_i_glide_gridfile>  (1) 
gpcr_drd2_6luq_protein_autoprepared_prepared

>  <s_lp_Force_Field>  (1) 
S-OPLS

>  <s_lp_Variant>  (1) 
DiffSBDD_93-1

>  <s_m_source_file>  (1) 
generated_generic_title2_ligand_DiffSBDD_2026-06-23_prepared.sdf

>  <GenAI_Model>  (1) 
DiffSBDD

>  <Protein>  (1) 
generic_title2

$$$$
DiffSBDD_96
     RDKit          3D

  0  0  0  0  0  0  0  0  0  0999 V3000
M  V30 BEGIN CTAB
M  V30 COUNTS 39 42 0 0 1
M  V30 BEGIN ATOM
M  V30 1 C 7.718401 6.613708 -12.033469 0
M  V30 2 C 9.693840 5.796985 -7.303822 0
M  V30 3 C 11.329839 8.440744 -9.256815 0
M  V30 4 C 10.691904 7.494426 -10.044333 0
M  V30 5 C 11.321073 8.946922 -6.815033 0
M  V30 6 C 9.719449 7.231440 -7.888050 0 CFG=2
M  V30 7 C 9.877832 6.799274 -9.306250 0
M  V30 8 C 5.531544 5.853776 -11.249456 0
M  V30 9 O 6.990623 3.289274 -13.596788 0
M  V30 10 S 6.575009 4.427787 -10.931554 0
M  V30 11 N 9.250334 5.644914 -9.580775 0
M  V30 12 N 10.851159 8.240182 -8.002328 0
M  V30 13 C 6.217485 6.722082 -12.302322 0
M  V30 14 C 9.293656 4.926521 -10.867630 0
M  V30 15 C 8.923448 4.906626 -8.386379 0
M  V30 16 F 11.019236 7.214361 -11.318474 0
M  V30 17 C 8.036747 5.128810 -11.745637 0 CFG=2
M  V30 18 C 8.175407 2.505729 -13.340323 0
M  V30 19 O 12.175386 9.256201 -9.585034 0
M  V30 20 O 8.764402 5.001574 -14.617987 0
M  V30 21 P 8.252037 4.297867 -13.408566 0 CFG=1
M  V30 22 H 7.963699 7.244115 -11.185038 0
M  V30 23 H 8.302582 7.008823 -12.864920 0
M  V30 24 H 9.209689 5.785000 -6.330158 0
M  V30 25 H 10.720088 5.446778 -7.184936 0
M  V30 26 H 12.411488 8.952476 -6.781550 0
M  V30 27 H 10.963130 8.451747 -5.911583 0
M  V30 28 H 10.975478 9.977411 -6.784987 0
M  V30 29 H 8.764689 7.741420 -7.759464 0
M  V30 30 H 4.575408 5.490657 -11.585029 0
M  V30 31 H 5.374800 6.390204 -10.317077 0
M  V30 32 H 5.987911 6.344987 -13.299087 0
M  V30 33 H 5.869433 7.753930 -12.251016 0
M  V30 34 H 10.175403 5.169115 -11.450977 0
M  V30 35 H 9.395420 3.861143 -10.662139 0
M  V30 36 H 7.846966 4.863102 -8.217466 0
M  V30 37 H 9.375428 3.924634 -8.384980 0
M  V30 38 H 8.429338 1.915349 -14.217507 0
M  V30 39 H 8.103623 1.999527 -12.385033 0
M  V30 END ATOM
M  V30 BEGIN BOND
M  V30 1 1 4 3
M  V30 2 1 6 2
M  V30 3 2 7 4
M  V30 4 1 7 6
M  V30 5 1 10 8
M  V30 6 1 11 7
M  V30 7 1 12 3
M  V30 8 1 12 5
M  V30 9 1 12 6
M  V30 10 1 13 1
M  V30 11 1 13 8
M  V30 12 1 14 11
M  V30 13 1 15 2
M  V30 14 1 15 11
M  V30 15 1 16 4
M  V30 16 1 17 1
M  V30 17 1 17 10
M  V30 18 1 17 14 CFG=1
M  V30 19 1 18 9
M  V30 20 2 19 3
M  V30 21 1 21 9 CFG=3
M  V30 22 1 21 17
M  V30 23 1 21 18
M  V30 24 2 21 20
M  V30 25 1 22 1
M  V30 26 1 23 1
M  V30 27 1 24 2
M  V30 28 1 25 2
M  V30 29 1 26 5
M  V30 30 1 27 5
M  V30 31 1 28 5
M  V30 32 1 6 29 CFG=3
M  V30 33 1 30 8
M  V30 34 1 31 8
M  V30 35 1 32 13
M  V30 36 1 33 13
M  V30 37 1 34 14
M  V30 38 1 35 14
M  V30 39 1 36 15
M  V30 40 1 37 15
M  V30 41 1 38 18
M  V30 42 1 39 18
M  V30 END BOND
M  V30 END CTAB
M  END
>  <i_epik_Tot_Q>  (1) 
0

>  <i_epik_Tot_abs_Q>  (1) 
0

>  <i_i_glide_confnum>  (1) 
27

>  <i_i_glide_lignum>  (1) 
184

>  <i_i_glide_posenum>  (1) 
106

>  <i_i_glide_rotatable_bonds>  (1) 
3

>  <i_lp_mmshare_version>  (1) 
72125

>  <i_m_source_file_index>  (1) 
97

>  <i_f3d_flags>  (1) 
0

>  <num_sample>  (1) 
100

>  <b_lp_Chiralities_Consistent>  (1) 
1

>  <r_epik_Charging_Adjusted_Penalty>  (1) 
0

>  <r_epik_Ionization_Penalty>  (1) 
2.3370039309423061e-08

>  <r_epik_Ionization_Penalty_Charging>  (1) 
0

>  <r_epik_Ionization_Penalty_Neutral>  (1) 
2.3370039309423061e-08

>  <r_epik_State_Penalty>  (1) 
-0

>  <r_glide_ring_energy>  (1) 
1.2780340719072554

>  <r_i_docking_score>  (1) 
-3.7122554015069524

>  <r_i_glide_ecoul>  (1) 
-0.31572597460742313

>  <r_i_glide_eff_state_penalty>  (1) 
-0

>  <r_i_glide_einternal>  (1) 
2.0335439133408704

>  <r_i_glide_emodel>  (1) 
-33.636598312526424

>  <r_i_glide_emodel_strain>  (1) 
0

>  <r_i_glide_energy>  (1) 
-29.586008708272097

>  <r_i_glide_erotb>  (1) 
0.51154997196258456

>  <r_i_glide_esite>  (1) 
-0.074561890803083994

>  <r_i_glide_evdw>  (1) 
-29.270282733664672

>  <r_i_glide_gscore>  (1) 
-3.7122554015069524

>  <r_i_glide_gscore_strain>  (1) 
0

>  <r_i_glide_hbond>  (1) 
0

>  <r_i_glide_ligand_efficiency>  (1) 
-0.1767740667384263

>  <r_i_glide_ligand_efficiency_ln>  (1) 
-0.91784764670424324

>  <r_i_glide_ligand_efficiency_sa>  (1) 
-0.48770624648185412

>  <r_i_glide_lipo>  (1) 
-0.54915822694225935

>  <r_i_glide_metal>  (1) 
-0

>  <r_i_glide_rewards>  (1) 
-2.0892122228498469

>  <r_lp_Energy>  (1) 
19.645654999999998

>  <r_lp_tautomer_probability>  (1) 
1

>  <s_epik_cmdline>  (1) 
J2VwaWtfcHl0aG9uJywgJy1waHQnLCAnMS4wJywgJy1waCcsICc3LjQnLCAnLXRuJywgJzgnLCAnLW1hJywgJzUwMCcsICctaW1hZScsICc8aW5maWxlLm1hZT4nLCAnLW9tYWUnLCAnPG91dGZpbGUubWFlPic=

>  <s_epik_input>  (1) 
UzFbQ0gyXVtDSDJdW0NIMl1bQ0BAXTEoW1BAXTIoPU8pT1tDSDJdMilbQ0gyXU4oW0NIMl1bQ0gyXTMpQyhbQ0BASF0zNCk9QyhGKUMoPU8pTjRbQ0gzXQ==

>  <s_glide_docking_method>  (1) 
confgen

>  <s_i_glide_gridfile>  (1) 
gpcr_drd2_6luq_protein_autoprepared_prepared

>  <s_lp_Force_Field>  (1) 
S-OPLS

>  <s_lp_Variant>  (1) 
DiffSBDD_96-1

>  <s_m_source_file>  (1) 
generated_generic_title2_ligand_DiffSBDD_2026-06-23_prepared.sdf

>  <GenAI_Model>  (1) 
DiffSBDD

>  <Protein>  (1) 
generic_title2

$$$$
DiffSBDD_48
     RDKit          3D

  0  0  0  0  0  0  0  0  0  0999 V3000
M  V30 BEGIN CTAB
M  V30 COUNTS 49 50 0 0 1
M  V30 BEGIN ATOM
M  V30 1 C 10.181745 8.333518 -6.893837 0
M  V30 2 S 5.865042 6.929546 -16.722982 0
M  V30 3 O 10.575409 8.970729 -5.985046 0
M  V30 4 N 4.739625 7.350107 -21.353644 0
M  V30 5 C 9.009729 5.002932 -12.837680 0
M  V30 6 C 7.568016 6.917006 -12.405408 0
M  V30 7 O 4.556519 6.362752 -16.385019 0
M  V30 8 C 12.909687 8.475069 -8.472336 0
M  V30 9 O 9.835291 7.284129 -10.341505 0
M  V30 10 O 6.175406 8.274390 -16.219680 0
M  V30 11 N 7.078715 5.825649 -15.985916 0
M  V30 12 C 7.494423 4.841733 -18.349532 0
M  V30 13 C 10.631052 7.351883 -9.155364 0 CFG=2
M  V30 14 C 8.526969 4.928349 -14.158646 0
M  V30 15 C 5.615351 8.050584 -21.952738 0
M  V30 16 N 6.207272 6.790229 -18.301341 0 CHG=-1
M  V30 17 C 7.557442 5.865635 -14.628683 0
M  V30 18 C 9.085024 6.083439 -10.541958 0
M  V30 19 C 9.775410 7.610102 -7.913533 0
M  V30 20 C 7.074948 6.852379 -13.728763 0
M  V30 21 C 7.521773 4.672067 -16.810829 0
M  V30 22 O 4.207757 5.083239 -21.504220 0
M  V30 23 C 8.540065 5.998804 -11.963480 0
M  V30 24 C 4.975410 5.988726 -21.173936 0
M  V30 25 C 6.321597 5.647313 -20.468102 0
M  V30 26 C 6.237095 5.490774 -18.926923 0 CFG=1
M  V30 27 C 11.735249 8.396150 -9.464814 0
M  V30 28 H 9.751247 4.293849 -12.498380 0
M  V30 29 H 7.201750 7.678193 -11.730376 0
M  V30 30 H 13.823206 8.790224 -8.975244 0
M  V30 31 H 13.112034 7.529394 -7.985064 0
M  V30 32 H 12.712070 9.190227 -7.677227 0
M  V30 33 H 8.359341 5.438242 -18.647855 0
M  V30 34 H 7.644114 3.864951 -18.809917 0
M  V30 35 H 11.117570 6.390227 -9.006405 0
M  V30 36 H 8.908562 4.158450 -14.799486 0
M  V30 37 H 5.485571 9.131293 -22.051299 0
M  V30 38 H 6.510114 7.590223 -22.383128 0
M  V30 39 H 9.728910 5.220406 -10.366591 0
M  V30 40 H 8.261137 5.990627 -9.833641 0
M  V30 41 H 8.793985 7.158205 -7.908747 0
M  V30 42 H 6.335062 7.563693 -14.047432 0
M  V30 43 H 6.975406 3.780611 -16.505041 0
M  V30 44 H 8.579068 4.469989 -16.678026 0
M  V30 45 H 6.632695 4.688633 -20.884151 0
M  V30 46 H 7.137531 6.325172 -20.713905 0
M  V30 47 H 5.372024 4.879261 -18.671325 0
M  V30 48 H 12.156000 8.141946 -10.438097 0
M  V30 49 H 11.294088 9.385788 -9.585057 0
M  V30 END ATOM
M  V30 BEGIN BOND
M  V30 1 2 3 1
M  V30 2 2 7 2
M  V30 3 2 10 2
M  V30 4 1 11 2
M  V30 5 1 13 9
M  V30 6 2 14 5
M  V30 7 2 15 4
M  V30 8 1 16 2
M  V30 9 1 17 11
M  V30 10 1 17 14
M  V30 11 1 18 9
M  V30 12 2 19 1
M  V30 13 1 19 13
M  V30 14 1 20 6
M  V30 15 2 20 17
M  V30 16 1 21 11
M  V30 17 1 21 12
M  V30 18 1 23 5
M  V30 19 2 23 6
M  V30 20 1 23 18
M  V30 21 1 24 4
M  V30 22 2 24 22
M  V30 23 1 25 24
M  V30 24 1 26 12
M  V30 25 1 26 16
M  V30 26 1 26 25
M  V30 27 1 27 8
M  V30 28 1 27 13
M  V30 29 1 28 5
M  V30 30 1 29 6
M  V30 31 1 30 8
M  V30 32 1 31 8
M  V30 33 1 32 8
M  V30 34 1 33 12
M  V30 35 1 34 12
M  V30 36 1 13 35 CFG=1
M  V30 37 1 36 14
M  V30 38 1 37 15
M  V30 39 1 38 15
M  V30 40 1 39 18
M  V30 41 1 40 18
M  V30 42 1 41 19
M  V30 43 1 42 20
M  V30 44 1 43 21
M  V30 45 1 44 21
M  V30 46 1 45 25
M  V30 47 1 46 25
M  V30 48 1 26 47 CFG=3
M  V30 49 1 48 27
M  V30 50 1 49 27
M  V30 END BOND
M  V30 END CTAB
M  END
>  <i_epik_Tot_Q>  (1) 
-1

>  <i_epik_Tot_abs_Q>  (1) 
1

>  <i_i_glide_confnum>  (1) 
24

>  <i_i_glide_lignum>  (1) 
78

>  <i_i_glide_posenum>  (1) 
9

>  <i_i_glide_rotatable_bonds>  (1) 
9

>  <i_lp_mmshare_version>  (1) 
72125

>  <i_m_source_file_index>  (1) 
49

>  <i_f3d_flags>  (1) 
0

>  <num_sample>  (1) 
100

>  <b_lp_Chiralities_Consistent>  (1) 
1

>  <r_epik_Charging_Adjusted_Penalty>  (1) 
1.1273595753974743

>  <r_epik_Ionization_Penalty>  (1) 
0.56367978799068119

>  <r_epik_Ionization_Penalty_Charging>  (1) 
0.56367978769873717

>  <r_epik_Ionization_Penalty_Neutral>  (1) 
2.9194397843885657e-10

>  <r_epik_State_Penalty>  (1) 
0.56367978769873717

>  <r_glide_ring_energy>  (1) 
0

>  <r_i_docking_score>  (1) 
-3.7063260499613095

>  <r_i_glide_ecoul>  (1) 
-3.1972333909112027

>  <r_i_glide_eff_state_penalty>  (1) 
0.56367978769873717

>  <r_i_glide_einternal>  (1) 
7.4834795536205565

>  <r_i_glide_emodel>  (1) 
-42.324682108412553

>  <r_i_glide_emodel_strain>  (1) 
5.9419487781656173

>  <r_i_glide_energy>  (1) 
-42.760348169081247

>  <r_i_glide_erotb>  (1) 
1.0141341284107193

>  <r_i_glide_esite>  (1) 
0

>  <r_i_glide_evdw>  (1) 
-39.563114778170046

>  <r_i_glide_gscore>  (1) 
-4.2700058376600465

>  <r_i_glide_gscore_strain>  (1) 
0.48548719454140432

>  <r_i_glide_hbond>  (1) 
-0.046001148921244059

>  <r_i_glide_ligand_efficiency>  (1) 
-0.1372713351837522

>  <r_i_glide_ligand_efficiency_ln>  (1) 
-0.8627716008705566

>  <r_i_glide_ligand_efficiency_sa>  (1) 
-0.41181400555125669

>  <r_i_glide_lipo>  (1) 
-1.5206468596584402

>  <r_i_glide_metal>  (1) 
-0

>  <r_i_glide_rewards>  (1) 
-1.7452384044873033

>  <r_lp_Energy>  (1) 
50.405653999999998

>  <s_epik_Chemistry_Notes>  (1) 
This compound has an imine and may undergo hydrolysis.

>  <s_epik_cmdline>  (1) 
J2VwaWtfcHl0aG9uJywgJy1waHQnLCAnMS4wJywgJy1waCcsICc3LjQnLCAnLXRuJywgJzgnLCAnLW1hJywgJzUwMCcsICctaW1hZScsICc8aW5maWxlLm1hZT4nLCAnLW9tYWUnLCAnPG91dGZpbGUubWFlPic=

>  <s_epik_input>  (1) 
Tz1DPVtDSF1bQ0BIXShbQ0gyXVtDSDNdKU9bQ0gyXWMoW2NIXVtjSF0xKVtjSF1bY0hdYzFOKFMyKD1PKT1PKVtDSDJdW0NIMl1bQ0BASF0oW05IXTIpW0NIMl1DKD1PKU49W0NIMl0=

>  <s_glide_docking_method>  (1) 
confgen

>  <s_i_glide_gridfile>  (1) 
gpcr_drd2_6luq_protein_autoprepared_prepared

>  <s_lp_Force_Field>  (1) 
S-OPLS

>  <s_lp_Variant>  (1) 
DiffSBDD_48-2

>  <s_m_source_file>  (1) 
generated_generic_title2_ligand_DiffSBDD_2026-06-23_prepared.sdf

>  <GenAI_Model>  (1) 
DiffSBDD

>  <Protein>  (1) 
generic_title2

$$$$
DiffSBDD_80
     RDKit          3D

  0  0  0  0  0  0  0  0  0  0999 V3000
M  V30 BEGIN CTAB
M  V30 COUNTS 81 87 0 0 1
M  V30 BEGIN ATOM
M  V30 1 C 7.250879 5.800037 -11.077954 0
M  V30 2 C 6.612906 8.085373 -20.796464 0
M  V30 3 C 7.119601 4.642879 -15.206743 0
M  V30 4 O 8.491844 6.702737 -21.383369 0
M  V30 5 N 11.040010 8.791412 -7.096769 0 CHG=1
M  V30 6 C 7.660254 2.164350 -16.342526 0
M  V30 7 C 7.392296 3.546578 -14.365044 0
M  V30 8 C 7.729176 7.090871 -20.503553 0
M  V30 9 C 6.250530 2.887961 -12.299899 0
M  V30 10 C 11.408968 7.668445 -9.641809 0 CFG=2
M  V30 11 C 12.355753 8.223688 -7.358306 0 CFG=2
M  V30 12 C 6.530645 6.126249 -18.481486 0 CFG=1
M  V30 13 C 9.335813 6.078114 -9.258999 0 CFG=2
M  V30 14 O 9.456326 6.689669 -11.448781 0
M  V30 15 C 5.392779 7.170610 -18.707547 0
M  V30 16 C 7.863393 6.607549 -19.068575 0
M  V30 17 N 6.831088 5.907363 -14.922115 0
M  V30 18 O 7.777418 4.393806 -8.372616 0
M  V30 19 C 10.010149 7.823828 -7.445846 0
M  V30 20 C 7.673864 2.295308 -14.940050 0
M  V30 21 O 9.370508 8.586481 -9.527052 0
M  V30 22 C 6.788362 5.284071 -12.467102 0 CFG=2
M  V30 23 C 8.011692 7.354914 -13.315427 0
M  V30 24 C 7.271159 3.875257 -12.879704 0 CFG=2
M  V30 25 C 7.355985 3.286514 -17.152943 0
M  V30 26 O 13.155500 9.205543 -6.779254 0
M  V30 27 C 6.739657 5.755412 -17.020238 0
M  V30 28 C 10.027876 7.490648 -8.966490 0 CFG=1
M  V30 29 C 7.093563 4.514980 -16.493390 0
M  V30 30 N 6.572642 6.734999 -16.089124 0
M  V30 31 C 5.486717 7.188796 -13.425037 0
M  V30 32 C 5.278322 7.632198 -20.179749 0
M  V30 33 C 12.600115 8.078301 -8.823990 0 CFG=2
M  V30 34 C 8.773024 5.745630 -10.699964 0 CFG=2
M  V30 35 C 6.808432 6.398161 -13.544425 0 CFG=1
M  V30 36 C 7.285432 3.134490 -18.656271 0
M  V30 37 O 11.923243 9.020624 -9.629596 0
M  V30 38 C 8.586389 5.479773 -8.050231 0
M  V30 39 C 9.330892 6.684024 -12.818432 0
M  V30 40 H 6.628623 5.373324 -10.300638 0
M  V30 41 H 6.922846 6.821901 -11.185034 0
M  V30 42 H 6.904207 9.052391 -20.387312 0
M  V30 43 H 8.243922 7.428683 -18.473131 0
M  V30 44 H 6.519396 8.198627 -21.877536 0
M  V30 45 H 10.931688 9.594397 -7.709103 0
M  V30 46 H 7.857151 1.203629 -16.798120 0
M  V30 47 H 6.595858 1.860683 -12.387476 0
M  V30 48 H 6.055814 3.110554 -11.245769 0
M  V30 49 H 5.316290 2.968037 -12.860799 0
M  V30 50 H 11.584142 7.190329 -10.598785 0
M  V30 51 H 12.418295 7.239244 -6.903446 0
M  V30 52 H 6.158987 5.283575 -19.048073 0
M  V30 53 H 10.200988 5.420331 -9.245815 0
M  V30 54 H 4.429275 6.765820 -18.391496 0
M  V30 55 H 5.545935 8.049512 -18.085791 0
M  V30 56 H 8.604301 5.815171 -19.012948 0
M  V30 57 H 6.932034 4.700876 -8.663960 0
M  V30 58 H 9.038387 8.207678 -7.130929 0
M  V30 59 H 10.228545 6.950607 -6.834745 0
M  V30 60 H 7.876346 1.438528 -14.312527 0
M  V30 61 H 8.415032 8.390202 -9.511535 0
M  V30 62 H 5.720570 5.139910 -12.305939 0
M  V30 63 H 7.749228 8.162488 -12.627921 0
M  V30 64 H 8.167815 7.876346 -14.249410 0
M  V30 65 H 8.247017 3.660164 -12.456620 0
M  V30 66 H 14.041329 9.084383 -7.091782 0
M  V30 67 H 5.330667 7.628274 -12.442248 0
M  V30 68 H 5.380760 7.977816 -14.168034 0
M  V30 69 H 4.676079 6.488019 -13.595362 0
M  V30 70 H 4.567895 8.457316 -20.254051 0
M  V30 71 H 4.865199 6.826831 -20.785472 0
M  V30 72 H 13.610290 7.869580 -9.169602 0
M  V30 73 H 9.162692 4.761505 -10.952387 0
M  V30 74 H 7.644172 2.144107 -18.934786 0
M  V30 75 H 6.253458 3.177346 -19.004390 0
M  V30 76 H 7.898026 3.858491 -19.176924 0
M  V30 77 H 9.326233 5.093109 -7.350799 0
M  V30 78 H 8.031166 6.218683 -7.490503 0
M  V30 79 H 10.212012 7.295126 -13.013819 0
M  V30 80 H 9.524921 5.712336 -13.274622 0
M  V30 81 H 10.964555 9.057321 -6.124356 0
M  V30 END ATOM
M  V30 BEGIN BOND
M  V30 1 2 7 3
M  V30 2 1 8 2
M  V30 3 2 8 4
M  V30 4 1 11 5
M  V30 5 1 15 12
M  V30 6 1 16 8
M  V30 7 1 16 12
M  V30 8 1 17 3
M  V30 9 1 19 5
M  V30 10 2 20 6
M  V30 11 1 20 7
M  V30 12 1 22 1
M  V30 13 1 24 7
M  V30 14 1 24 9
M  V30 15 1 24 22
M  V30 16 1 25 6
M  V30 17 1 26 11
M  V30 18 1 27 12
M  V30 19 1 28 10
M  V30 20 1 28 13
M  V30 21 1 28 19
M  V30 22 1 28 21 CFG=3
M  V30 23 1 29 3
M  V30 24 2 29 25
M  V30 25 1 29 27
M  V30 26 1 30 17
M  V30 27 2 30 27
M  V30 28 1 32 2
M  V30 29 1 32 15
M  V30 30 1 33 10
M  V30 31 1 33 11
M  V30 32 1 34 1
M  V30 33 1 34 13
M  V30 34 1 34 14
M  V30 35 1 35 17
M  V30 36 1 35 22
M  V30 37 1 35 23
M  V30 38 1 35 31 CFG=3
M  V30 39 1 36 25
M  V30 40 1 37 10
M  V30 41 1 37 33
M  V30 42 1 38 13
M  V30 43 1 38 18
M  V30 44 1 39 14
M  V30 45 1 39 23
M  V30 46 1 40 1
M  V30 47 1 41 1
M  V30 48 1 42 2
M  V30 49 1 43 16
M  V30 50 1 44 2
M  V30 51 1 45 5
M  V30 52 1 46 6
M  V30 53 1 47 9
M  V30 54 1 48 9
M  V30 55 1 49 9
M  V30 56 1 10 50 CFG=3
M  V30 57 1 11 51 CFG=1
M  V30 58 1 12 52 CFG=3
M  V30 59 1 13 53 CFG=3
M  V30 60 1 54 15
M  V30 61 1 55 15
M  V30 62 1 56 16
M  V30 63 1 57 18
M  V30 64 1 58 19
M  V30 65 1 59 19
M  V30 66 1 60 20
M  V30 67 1 61 21
M  V30 68 1 22 62 CFG=1
M  V30 69 1 63 23
M  V30 70 1 64 23
M  V30 71 1 24 65 CFG=1
M  V30 72 1 66 26
M  V30 73 1 67 31
M  V30 74 1 68 31
M  V30 75 1 69 31
M  V30 76 1 70 32
M  V30 77 1 71 32
M  V30 78 1 33 72 CFG=1
M  V30 79 1 34 73 CFG=3
M  V30 80 1 74 36
M  V30 81 1 75 36
M  V30 82 1 76 36
M  V30 83 1 77 38
M  V30 84 1 78 38
M  V30 85 1 79 39
M  V30 86 1 80 39
M  V30 87 1 81 5
M  V30 END BOND
M  V30 END CTAB
M  END
>  <i_epik_Tot_Q>  (1) 
1

>  <i_epik_Tot_abs_Q>  (1) 
1

>  <i_i_glide_confnum>  (1) 
230

>  <i_i_glide_lignum>  (1) 
142

>  <i_i_glide_posenum>  (1) 
366

>  <i_i_glide_rotatable_bonds>  (1) 
7

>  <i_lp_mmshare_version>  (1) 
72125

>  <i_m_source_file_index>  (1) 
81

>  <i_f3d_flags>  (1) 
0

>  <num_sample>  (1) 
100

>  <b_lp_Chiralities_Consistent>  (1) 
1

>  <r_epik_Charging_Adjusted_Penalty>  (1) 
1.2255087210735522

>  <r_epik_Ionization_Penalty>  (1) 
1.2155625160302366

>  <r_epik_Ionization_Penalty_Charging>  (1) 
0.066233371384416553

>  <r_epik_Ionization_Penalty_Neutral>  (1) 
1.14932914464582

>  <r_epik_State_Penalty>  (1) 
1.1592753496891357

>  <r_glide_ring_energy>  (1) 
0

>  <r_i_docking_score>  (1) 
-3.6966945451929032

>  <r_i_glide_ecoul>  (1) 
-8.9116834010381059

>  <r_i_glide_eff_state_penalty>  (1) 
1.1592753496891357

>  <r_i_glide_einternal>  (1) 
12.609084772047115

>  <r_i_glide_emodel>  (1) 
-11.254634714136863

>  <r_i_glide_emodel_strain>  (1) 
5.5329747336177775

>  <r_i_glide_energy>  (1) 
-16.740146472073327

>  <r_i_glide_erotb>  (1) 
0.2829020549976658

>  <r_i_glide_esite>  (1) 
0

>  <r_i_glide_evdw>  (1) 
-7.8284630710352205

>  <r_i_glide_gscore>  (1) 
-4.8559698948820387

>  <r_i_glide_gscore_strain>  (1) 
0.38324368340444437

>  <r_i_glide_hbond>  (1) 
-0.14485167634917051

>  <r_i_glide_ligand_efficiency>  (1) 
-0.094787039620330846

>  <r_i_glide_ligand_efficiency_ln>  (1) 
-0.79267624740435039

>  <r_i_glide_ligand_efficiency_sa>  (1) 
-0.32144289340990323

>  <r_i_glide_lipo>  (1) 
-2.3244501729626461

>  <r_i_glide_metal>  (1) 
-0

>  <r_i_glide_rewards>  (1) 
-1.3246381202648549

>  <r_lp_Energy>  (1) 
35.636825000000002

>  <r_lp_tautomer_probability>  (1) 
0.99999997999999979

>  <s_epik_Chemistry_Notes>  (1) 
This compound contains an acetal/aminal-like group ( X-CH(R)-Y where X, Y are N, S, or O) that may be acid/base labile, releasing an aldehyde.

>  <s_epik_cmdline>  (1) 
J2VwaWtfcHl0aG9uJywgJy1waHQnLCAnMS4wJywgJy1waCcsICc3LjQnLCAnLXRuJywgJzgnLCAnLW1hJywgJzUwMCcsICctaW1hZScsICc8aW5maWxlLm1hZT4nLCAnLW9tYWUnLCAnPG91dGZpbGUubWFlPic=

>  <s_epik_input>  (1) 
W0NASF0xMltDQEBIXShPMilbQ0BASF0oW09IXSlbTkhdW0NIMl1bQ0BdMShbT0hdKVtDQEBIXShbQ0gyXVtPSF0pW0NASF0oT1tDSDJdW0NIMl0zKVtDSDJdW0NAQEhdNFtDQEBIXShbQ0gzXSljKGM1bjZbQ0BdMzRbQ0gzXSlbY0hdW2NIXWMoW0NIM10pYzVjKG42KVtDQEhdKFtDSDJdW0NIMl1bQ0gyXTcpW0NIXT1DN1tPSF0=

>  <s_glide_docking_method>  (1) 
confgen

>  <s_i_glide_gridfile>  (1) 
gpcr_drd2_6luq_protein_autoprepared_prepared

>  <s_lp_Force_Field>  (1) 
S-OPLS

>  <s_lp_Variant>  (1) 
DiffSBDD_80-4

>  <s_m_source_file>  (1) 
generated_generic_title2_ligand_DiffSBDD_2026-06-23_prepared.sdf

>  <GenAI_Model>  (1) 
DiffSBDD

>  <Protein>  (1) 
generic_title2

$$$$
DiffSBDD_46
     RDKit          3D

  0  0  0  0  0  0  0  0  0  0999 V3000
M  V30 BEGIN CTAB
M  V30 COUNTS 41 43 0 0 1
M  V30 BEGIN ATOM
M  V30 1 O 8.175265 2.132981 -13.756474 0
M  V30 2 C 11.994299 8.341073 -8.671811 0
M  V30 3 C 7.773590 3.294404 -13.794560 0
M  V30 4 F 11.375424 8.888870 -4.436600 0
M  V30 5 C 9.053417 4.546940 -11.199058 0
M  V30 6 O 8.606372 5.327661 -14.795172 0
M  V30 7 O 6.496191 6.870672 -11.985026 0
M  V30 8 C 5.909626 4.555298 -11.543664 0
M  V30 9 C 6.299091 3.624644 -13.968999 0
M  V30 10 C 6.877164 5.520820 -12.198180 0 CFG=1
M  V30 11 C 11.397108 7.616537 -7.628097 0
M  V30 12 C 11.142779 8.888363 -5.771103 0
M  V30 13 C 10.574844 7.190361 -10.275801 0
M  V30 14 S 8.734991 5.253052 -9.564434 0
M  V30 15 F 11.589312 10.071921 -6.258268 0
M  V30 16 C 9.359613 4.879581 -15.915929 0
M  V30 17 C 9.985754 6.453672 -9.225655 0
M  V30 18 C 8.729603 4.479963 -13.660290 0 CFG=1
M  V30 19 O 11.775409 7.844696 -6.346090 0
M  V30 20 C 11.583696 8.130529 -9.991611 0
M  V30 21 C 5.859352 4.748953 -13.037281 0 CFG=2
M  V30 22 C 10.396196 6.667930 -7.904530 0
M  V30 23 F 9.803986 8.790847 -5.983858 0
M  V30 24 C 8.388530 5.281457 -12.383252 0 CFG=2
M  V30 25 H 12.765189 9.065978 -8.454776 0
M  V30 26 H 10.131478 4.485160 -11.351013 0
M  V30 27 H 8.707557 3.519235 -11.178016 0
M  V30 28 H 6.668613 7.116798 -11.073537 0
M  V30 29 H 6.290774 3.603713 -11.182765 0
M  V30 30 H 5.102410 4.978532 -10.948324 0
M  V30 31 H 5.695499 2.738017 -13.785283 0
M  V30 32 H 6.167560 3.941230 -15.003186 0
M  V30 33 H 10.263149 7.034864 -11.290179 0
M  V30 34 H 9.218858 5.565462 -16.750518 0
M  V30 35 H 9.055274 3.885168 -16.246014 0
M  V30 36 H 10.425891 4.855322 -15.682397 0
M  V30 37 H 9.758262 4.122691 -13.588304 0
M  V30 38 H 12.040489 8.692113 -10.785025 0
M  V30 39 H 5.011969 5.316022 -13.416777 0
M  V30 40 H 9.941564 6.109338 -7.099845 0
M  V30 41 H 8.841118 6.259267 -12.510283 0
M  V30 END ATOM
M  V30 BEGIN BOND
M  V30 1 2 3 1
M  V30 2 1 9 3
M  V30 3 1 10 7 CFG=1
M  V30 4 1 10 8
M  V30 5 1 11 2
M  V30 6 1 12 4
M  V30 7 1 14 5
M  V30 8 1 15 12
M  V30 9 1 16 6
M  V30 10 2 17 13
M  V30 11 1 17 14
M  V30 12 1 18 3
M  V30 13 1 18 6
M  V30 14 1 19 11
M  V30 15 1 19 12
M  V30 16 2 20 2
M  V30 17 1 20 13
M  V30 18 1 21 8
M  V30 19 1 21 9
M  V30 20 1 21 10
M  V30 21 2 22 11
M  V30 22 1 22 17
M  V30 23 1 23 12
M  V30 24 1 24 5
M  V30 25 1 24 10
M  V30 26 1 24 18
M  V30 27 1 25 2
M  V30 28 1 26 5
M  V30 29 1 27 5
M  V30 30 1 28 7
M  V30 31 1 29 8
M  V30 32 1 30 8
M  V30 33 1 31 9
M  V30 34 1 32 9
M  V30 35 1 33 13
M  V30 36 1 34 16
M  V30 37 1 35 16
M  V30 38 1 36 16
M  V30 39 1 18 37 CFG=1
M  V30 40 1 38 20
M  V30 41 1 21 39 CFG=3
M  V30 42 1 40 22
M  V30 43 1 24 41 CFG=3
M  V30 END BOND
M  V30 END CTAB
M  END
>  <i_epik_Tot_Q>  (1) 
0

>  <i_epik_Tot_abs_Q>  (1) 
0

>  <i_i_glide_confnum>  (1) 
75

>  <i_i_glide_lignum>  (1) 
75

>  <i_i_glide_posenum>  (1) 
359

>  <i_i_glide_rotatable_bonds>  (1) 
7

>  <i_lp_mmshare_version>  (1) 
72125

>  <i_m_source_file_index>  (1) 
47

>  <i_f3d_flags>  (1) 
0

>  <num_sample>  (1) 
100

>  <b_lp_Chiralities_Consistent>  (1) 
1

>  <r_epik_Charging_Adjusted_Penalty>  (1) 
0

>  <r_epik_Ionization_Penalty>  (1) 
3.9372517810782557e-08

>  <r_epik_Ionization_Penalty_Charging>  (1) 
0

>  <r_epik_Ionization_Penalty_Neutral>  (1) 
3.9372517810782557e-08

>  <r_epik_State_Penalty>  (1) 
-0

>  <r_glide_ring_energy>  (1) 
0

>  <r_i_docking_score>  (1) 
-3.6876286014741759

>  <r_i_glide_ecoul>  (1) 
-3.7199037701090507

>  <r_i_glide_eff_state_penalty>  (1) 
-0

>  <r_i_glide_einternal>  (1) 
5.4427899436329312

>  <r_i_glide_emodel>  (1) 
-37.983002000349352

>  <r_i_glide_emodel_strain>  (1) 
0.054986792455032685

>  <r_i_glide_energy>  (1) 
-31.542459282228975

>  <r_i_glide_erotb>  (1) 
0.58490147517832547

>  <r_i_glide_esite>  (1) 
0

>  <r_i_glide_evdw>  (1) 
-27.822555512119926

>  <r_i_glide_gscore>  (1) 
-3.6876286014741759

>  <r_i_glide_gscore_strain>  (1) 
0

>  <r_i_glide_hbond>  (1) 
-0.16

>  <r_i_glide_ligand_efficiency>  (1) 
-0.15365119172809066

>  <r_i_glide_ligand_efficiency_ln>  (1) 
-0.88261873858314388

>  <r_i_glide_ligand_efficiency_sa>  (1) 
-0.44320673049411996

>  <r_i_glide_lipo>  (1) 
-1.755827372654257

>  <r_i_glide_metal>  (1) 
-0

>  <r_i_glide_rewards>  (1) 
-0.40758936287588998

>  <r_lp_Energy>  (1) 
18.733408999999998

>  <r_lp_tautomer_probability>  (1) 
1

>  <s_epik_cmdline>  (1) 
J2VwaWtfcHl0aG9uJywgJy1waHQnLCAnMS4wJywgJy1waCcsICc3LjQnLCAnLXRuJywgJzgnLCAnLW1hJywgJzUwMCcsICctaW1hZScsICc8aW5maWxlLm1hZT4nLCAnLW9tYWUnLCAnPG91dGZpbGUubWFlPic=

>  <s_epik_input>  (1) 
W09IXUMxMltDSF0oW0NIMl0xKVtDSDJdQyg9TylbQ0BASF0oT1tDSDNdKVtDQEBIXTJbQ0gyXVNjKFtjSF0zKVtjSF1bY0hdW2NIXWMzT0MoRikoRilG

>  <s_glide_docking_method>  (1) 
confgen

>  <s_i_glide_gridfile>  (1) 
gpcr_drd2_6luq_protein_autoprepared_prepared

>  <s_lp_Force_Field>  (1) 
S-OPLS

>  <s_lp_Variant>  (1) 
DiffSBDD_46-1

>  <s_m_source_file>  (1) 
generated_generic_title2_ligand_DiffSBDD_2026-06-23_prepared.sdf

>  <GenAI_Model>  (1) 
DiffSBDD

>  <Protein>  (1) 
generic_title2

$$$$
DiffSBDD_2
     RDKit          3D

  0  0  0  0  0  0  0  0  0  0999 V3000
M  V30 BEGIN CTAB
M  V30 COUNTS 71 75 0 0 1
M  V30 BEGIN ATOM
M  V30 1 C 7.715839 4.646922 -10.793975 0
M  V30 2 N 8.231533 1.569082 -16.535498 0 CFG=2 CHG=1
M  V30 3 C 6.811810 -1.314874 -17.522582 0
M  V30 4 C 12.141095 0.571783 -18.715675 0
M  V30 5 C 7.801005 0.480245 -20.805673 0
M  V30 6 C 10.525320 7.089137 -9.809274 0 CFG=1
M  V30 7 C 10.303539 0.195631 -20.458504 0
M  V30 8 O 7.075485 4.967613 -15.561790 0
M  V30 9 C 9.575595 6.238287 -10.636627 0
M  V30 10 C 7.650947 1.688849 -14.108891 0 CFG=2
M  V30 11 C 9.687022 0.196733 -17.985012 0
M  V30 12 C 7.374140 3.780384 -15.441393 0
M  V30 13 C 5.791726 0.786479 -18.475813 0
M  V30 14 C 11.843980 7.590223 -10.357328 0
M  V30 15 O 10.663025 8.390224 -10.385018 0
M  V30 16 O 6.766701 1.001969 -13.241522 0
M  V30 17 O 10.021777 -0.760329 -17.288080 0
M  V30 18 C 8.478387 5.375027 -8.489300 0
M  V30 19 C 9.375390 6.331587 -7.743826 0
M  V30 20 C 9.070375 0.823609 -21.095699 0
M  V30 21 C 12.679443 1.605973 -17.719736 0
M  V30 22 F 11.034384 7.914318 -7.579043 0
M  V30 23 C 8.781787 5.463573 -12.824838 0
M  V30 24 C 7.817867 2.985361 -16.685715 0
M  V30 25 C 8.595713 5.419123 -10.010858 0
M  V30 26 C 7.093915 -0.043191 -18.367912 0
M  V30 27 C 10.642936 0.767374 -19.059630 0 CFG=1
M  V30 28 C 7.806510 4.663702 -12.199033 0
M  V30 29 C 9.656899 6.247490 -12.050880 0
M  V30 30 C 8.300330 0.863810 -17.867029 0 CFG=1
M  V30 31 C 6.826857 3.832722 -13.030081 0
M  V30 32 N 7.315227 3.129294 -14.246202 0
M  V30 33 C 10.288551 7.096540 -8.342987 0
M  V30 34 C 7.409026 -0.586500 -19.795671 0
M  V30 35 C 7.546399 0.889446 -15.421709 0
M  V30 36 H 6.965501 4.037733 -10.310816 0
M  V30 37 H 6.136907 -1.987911 -18.053136 0
M  V30 38 H 7.713989 -1.889502 -17.316213 0
M  V30 39 H 6.315593 -1.123416 -16.575300 0
M  V30 40 H 12.327713 -0.427755 -18.327782 0
M  V30 41 H 12.745073 0.645007 -19.620447 0
M  V30 42 H 6.988195 0.988505 -21.305307 0
M  V30 43 H 11.125073 0.382231 -21.150387 0
M  V30 44 H 10.208952 -0.890042 -20.421978 0
M  V30 45 H 8.655133 1.612390 -13.691790 0
M  V30 46 H 4.986198 0.201156 -18.921845 0
M  V30 47 H 5.424429 1.127667 -17.511000 0
M  V30 48 H 5.925504 1.670443 -19.099457 0
M  V30 49 H 12.612330 7.962031 -9.682281 0
M  V30 50 H 12.174016 7.242661 -11.331273 0
M  V30 51 H 7.257252 0.385554 -12.717272 0
M  V30 52 H 7.444858 5.590266 -8.223307 0
M  V30 53 H 8.693334 4.368787 -8.138537 0
M  V30 54 H 9.250684 6.381880 -6.672051 0
M  V30 55 H 9.252650 1.601205 -21.823863 0
M  V30 56 H 13.727182 1.410918 -17.488424 0
M  V30 57 H 12.614279 2.615309 -18.127159 0
M  V30 58 H 12.126470 1.589602 -16.785038 0
M  V30 59 H 8.856616 5.488207 -13.898617 0
M  V30 60 H 6.977432 3.040192 -17.377023 0
M  V30 61 H 8.634453 3.530929 -17.160640 0
M  V30 62 H 10.474764 1.844334 -19.108384 0
M  V30 63 H 10.392589 6.862956 -12.544289 0
M  V30 64 H 8.335890 1.682681 -18.584888 0
M  V30 65 H 6.023491 4.513624 -13.317279 0
M  V30 66 H 6.319896 3.151933 -12.349359 0
M  V30 67 H 6.540378 -1.104116 -20.205332 0
M  V30 68 H 8.178033 -1.356793 -19.748097 0
M  V30 69 H 7.957916 -0.111792 -15.283339 0
M  V30 70 H 6.489284 0.793545 -15.660044 0
M  V30 71 H 9.193871 1.619993 -16.232061 0
M  V30 END ATOM
M  V30 BEGIN BOND
M  V30 1 1 9 6
M  V30 2 2 12 8
M  V30 3 1 14 6
M  V30 4 1 6 15 CFG=3
M  V30 5 1 15 14
M  V30 6 1 16 10
M  V30 7 2 17 11
M  V30 8 1 19 18
M  V30 9 2 20 5
M  V30 10 1 20 7
M  V30 11 1 21 4
M  V30 12 1 24 2
M  V30 13 1 24 12
M  V30 14 1 25 1
M  V30 15 2 25 9
M  V30 16 1 25 18
M  V30 17 1 26 3
M  V30 18 1 26 13
M  V30 19 1 27 4
M  V30 20 1 27 7
M  V30 21 1 27 11
M  V30 22 2 28 1
M  V30 23 1 28 23
M  V30 24 1 29 9
M  V30 25 2 29 23
M  V30 26 1 30 2
M  V30 27 1 30 11
M  V30 28 1 30 26
M  V30 29 1 31 28
M  V30 30 1 32 10
M  V30 31 1 32 12
M  V30 32 1 32 31
M  V30 33 1 33 6
M  V30 34 2 33 19
M  V30 35 1 33 22
M  V30 36 1 34 5
M  V30 37 1 34 26
M  V30 38 1 35 2
M  V30 39 1 35 10
M  V30 40 1 36 1
M  V30 41 1 37 3
M  V30 42 1 38 3
M  V30 43 1 39 3
M  V30 44 1 40 4
M  V30 45 1 41 4
M  V30 46 1 42 5
M  V30 47 1 43 7
M  V30 48 1 44 7
M  V30 49 1 10 45 CFG=1
M  V30 50 1 46 13
M  V30 51 1 47 13
M  V30 52 1 48 13
M  V30 53 1 49 14
M  V30 54 1 50 14
M  V30 55 1 51 16
M  V30 56 1 52 18
M  V30 57 1 53 18
M  V30 58 1 54 19
M  V30 59 1 55 20
M  V30 60 1 56 21
M  V30 61 1 57 21
M  V30 62 1 58 21
M  V30 63 1 59 23
M  V30 64 1 60 24
M  V30 65 1 61 24
M  V30 66 1 27 62 CFG=3
M  V30 67 1 63 29
M  V30 68 1 30 64 CFG=3
M  V30 69 1 65 31
M  V30 70 1 66 31
M  V30 71 1 67 34
M  V30 72 1 68 34
M  V30 73 1 69 35
M  V30 74 1 70 35
M  V30 75 1 2 71 CFG=1
M  V30 END BOND
M  V30 END CTAB
M  END
>  <i_epik_Tot_Q>  (1) 
1

>  <i_epik_Tot_abs_Q>  (1) 
1

>  <i_i_glide_confnum>  (1) 
24

>  <i_i_glide_lignum>  (1) 
5

>  <i_i_glide_posenum>  (1) 
336

>  <i_i_glide_rotatable_bonds>  (1) 
5

>  <i_lp_mmshare_version>  (1) 
72125

>  <i_m_source_file_index>  (1) 
3

>  <i_f3d_flags>  (1) 
0

>  <num_sample>  (1) 
100

>  <b_lp_Chiralities_Consistent>  (1) 
1

>  <r_epik_Charging_Adjusted_Penalty>  (1) 
2.4002963273514464

>  <r_epik_Ionization_Penalty>  (1) 
1.2026340853706476

>  <r_epik_Ionization_Penalty_Charging>  (1) 
1.2001481636757232

>  <r_epik_Ionization_Penalty_Neutral>  (1) 
0.0024859216949244217

>  <r_epik_State_Penalty>  (1) 
1.2001481636757232

>  <r_glide_ring_energy>  (1) 
0

>  <r_i_docking_score>  (1) 
-3.6860315602600568

>  <r_i_glide_ecoul>  (1) 
-1.2331990634737129

>  <r_i_glide_eff_state_penalty>  (1) 
1.2001481636757232

>  <r_i_glide_einternal>  (1) 
9.9200127511610461

>  <r_i_glide_emodel>  (1) 
-40.650976855335159

>  <r_i_glide_emodel_strain>  (1) 
1.0481603481947701

>  <r_i_glide_energy>  (1) 
-37.82342050462254

>  <r_i_glide_erotb>  (1) 
0.26041846348708686

>  <r_i_glide_esite>  (1) 
0

>  <r_i_glide_evdw>  (1) 
-36.590221441148827

>  <r_i_glide_gscore>  (1) 
-4.88617972393578

>  <r_i_glide_gscore_strain>  (1) 
0

>  <r_i_glide_hbond>  (1) 
0

>  <r_i_glide_ligand_efficiency>  (1) 
-0.10531518743600163

>  <r_i_glide_ligand_efficiency_ln>  (1) 
-0.80916573453991458

>  <r_i_glide_ligand_efficiency_sa>  (1) 
-0.34449296157310161

>  <r_i_glide_lipo>  (1) 
-1.1947866669692428

>  <r_i_glide_metal>  (1) 
-0

>  <r_i_glide_rewards>  (1) 
-1.9373205888751253

>  <r_lp_Energy>  (1) 
76.336466000000001

>  <r_lp_tautomer_probability>  (1) 
0.99995000000000001

>  <s_epik_Chemistry_Notes>  (1) 
This compound contains an acetal/aminal-like group ( X-CH(R)-Y where X, Y are N, S, or O) that may be acid/base labile, releasing an aldehyde.

>  <s_epik_cmdline>  (1) 
J2VwaWtfcHl0aG9uJywgJy1waHQnLCAnMS4wJywgJy1waCcsICc3LjQnLCAnLXRuJywgJzgnLCAnLW1hJywgJzUwMCcsICctaW1hZScsICc8aW5maWxlLm1hZT4nLCAnLW9tYWUnLCAnPG91dGZpbGUubWFlPic=

>  <s_epik_input>  (1) 
TzFbQ0gyXVtDQF0xMmMzYyhbQ0gyXVtDSF09QzJGKVtjSF1jKFtjSF1bY0hdMylbQ0gyXU4oW0NAQEhdKFtPSF0pW0NIMl00KUMoPU8pW0NIMl1ONFtDQEhdKEM1KFtDSDNdKVtDSDNdKUMoPU8pW0NAQEhdKFtDSDJdW0NIM10pW0NIMl0vW0NIXT1bQ0hdXFtDSDJdNQ==

>  <s_glide_docking_method>  (1) 
confgen

>  <s_i_glide_gridfile>  (1) 
gpcr_drd2_6luq_protein_autoprepared_prepared

>  <s_lp_Force_Field>  (1) 
S-OPLS

>  <s_lp_Variant>  (1) 
DiffSBDD_2-2

>  <s_m_source_file>  (1) 
generated_generic_title2_ligand_DiffSBDD_2026-06-23_prepared.sdf

>  <GenAI_Model>  (1) 
DiffSBDD

>  <Protein>  (1) 
generic_title2

$$$$
DiffSBDD_46
     RDKit          3D

  0  0  0  0  0  0  0  0  0  0999 V3000
M  V30 BEGIN CTAB
M  V30 COUNTS 41 43 0 0 1
M  V30 BEGIN ATOM
M  V30 1 O 8.277609 4.488103 -14.841131 0
M  V30 2 C 12.150806 8.388896 -8.586242 0
M  V30 3 C 7.278959 4.925190 -14.273620 0
M  V30 4 F 9.136490 6.388795 -6.385207 0
M  V30 5 C 8.113309 7.572653 -12.090537 0
M  V30 6 O 5.796606 6.746471 -14.831292 0
M  V30 7 O 5.375165 6.390225 -10.785090 0
M  V30 8 C 6.843386 4.550630 -11.194634 0
M  V30 9 C 6.234900 3.995249 -13.660887 0
M  V30 10 C 6.234332 5.827852 -11.747278 0 CFG=1
M  V30 11 C 10.858843 7.968299 -8.225730 0
M  V30 12 C 10.357660 6.952363 -6.231732 0
M  V30 13 C 11.775532 7.590274 -10.851688 0
M  V30 14 S 9.460990 6.424069 -11.714406 0
M  V30 15 F 11.304943 6.052351 -6.605254 0
M  V30 16 C 5.876357 6.751031 -16.251138 0
M  V30 17 C 10.482103 7.190227 -10.504722 0
M  V30 18 C 7.015368 6.428784 -14.157432 0 CFG=1
M  V30 19 O 10.441448 8.112342 -6.934425 0
M  V30 20 C 12.606881 8.203108 -9.898297 0
M  V30 21 C 5.800225 4.468020 -12.280967 0 CFG=2
M  V30 22 C 10.012441 7.375741 -9.191551 0
M  V30 23 F 10.575409 7.186812 -4.918854 0
M  V30 24 C 6.856520 6.883145 -12.678310 0 CFG=2
M  V30 25 H 12.796988 8.839882 -7.849317 0
M  V30 26 H 7.868438 8.122246 -11.185115 0
M  V30 27 H 8.487075 8.324609 -12.784689 0
M  V30 28 H 5.922823 6.948072 -10.215565 0
M  V30 29 H 7.849493 4.251514 -11.475729 0
M  V30 30 H 6.546736 4.236294 -10.195348 0
M  V30 31 H 6.612698 2.974198 -13.601974 0
M  V30 32 H 5.374553 3.990835 -14.323380 0
M  V30 33 H 12.133973 7.436138 -11.858762 0
M  V30 34 H 4.896533 6.987229 -16.665547 0
M  V30 35 H 6.177961 5.784193 -16.653933 0
M  V30 36 H 6.574802 7.510303 -16.602446 0
M  V30 37 H 7.821106 6.987362 -14.632571 0
M  V30 38 H 13.602400 8.520170 -10.172817 0
M  V30 39 H 4.820799 4.104916 -11.980591 0
M  V30 40 H 9.015882 7.052436 -8.919259 0
M  V30 41 H 6.109985 7.674461 -12.723855 0
M  V30 END ATOM
M  V30 BEGIN BOND
M  V30 1 2 3 1
M  V30 2 1 9 3
M  V30 3 1 10 7 CFG=1
M  V30 4 1 10 8
M  V30 5 1 11 2
M  V30 6 1 12 4
M  V30 7 1 14 5
M  V30 8 1 15 12
M  V30 9 1 16 6
M  V30 10 2 17 13
M  V30 11 1 17 14
M  V30 12 1 18 3
M  V30 13 1 18 6
M  V30 14 1 19 11
M  V30 15 1 19 12
M  V30 16 2 20 2
M  V30 17 1 20 13
M  V30 18 1 21 8
M  V30 19 1 21 9
M  V30 20 1 21 10
M  V30 21 2 22 11
M  V30 22 1 22 17
M  V30 23 1 23 12
M  V30 24 1 24 5
M  V30 25 1 24 10
M  V30 26 1 24 18
M  V30 27 1 25 2
M  V30 28 1 26 5
M  V30 29 1 27 5
M  V30 30 1 28 7
M  V30 31 1 29 8
M  V30 32 1 30 8
M  V30 33 1 31 9
M  V30 34 1 32 9
M  V30 35 1 33 13
M  V30 36 1 34 16
M  V30 37 1 35 16
M  V30 38 1 36 16
M  V30 39 1 18 37 CFG=3
M  V30 40 1 38 20
M  V30 41 1 21 39 CFG=1
M  V30 42 1 40 22
M  V30 43 1 24 41 CFG=3
M  V30 END BOND
M  V30 END CTAB
M  END
>  <i_epik_Tot_Q>  (1) 
0

>  <i_epik_Tot_abs_Q>  (1) 
0

>  <i_i_glide_confnum>  (1) 
19

>  <i_i_glide_lignum>  (1) 
75

>  <i_i_glide_posenum>  (1) 
354

>  <i_i_glide_rotatable_bonds>  (1) 
7

>  <i_lp_mmshare_version>  (1) 
72125

>  <i_m_source_file_index>  (1) 
47

>  <i_f3d_flags>  (1) 
0

>  <num_sample>  (1) 
100

>  <b_lp_Chiralities_Consistent>  (1) 
1

>  <r_epik_Charging_Adjusted_Penalty>  (1) 
0

>  <r_epik_Ionization_Penalty>  (1) 
3.9372517810782557e-08

>  <r_epik_Ionization_Penalty_Charging>  (1) 
0

>  <r_epik_Ionization_Penalty_Neutral>  (1) 
3.9372517810782557e-08

>  <r_epik_State_Penalty>  (1) 
-0

>  <r_glide_ring_energy>  (1) 
0

>  <r_i_docking_score>  (1) 
-3.677469757770341

>  <r_i_glide_ecoul>  (1) 
-5.051628500707495

>  <r_i_glide_eff_state_penalty>  (1) 
-0

>  <r_i_glide_einternal>  (1) 
3.5356399848323701

>  <r_i_glide_emodel>  (1) 
-37.564636485778493

>  <r_i_glide_emodel_strain>  (1) 
0.26449013364709373

>  <r_i_glide_energy>  (1) 
-30.405413323999486

>  <r_i_glide_erotb>  (1) 
0.58490147517832547

>  <r_i_glide_esite>  (1) 
-0.050823993367298509

>  <r_i_glide_evdw>  (1) 
-25.353784823291992

>  <r_i_glide_gscore>  (1) 
-3.677469757770341

>  <r_i_glide_gscore_strain>  (1) 
0

>  <r_i_glide_hbond>  (1) 
-0.15163606374158925

>  <r_i_glide_ligand_efficiency>  (1) 
-0.1532279065737642

>  <r_i_glide_ligand_efficiency_ln>  (1) 
-0.88018726112585388

>  <r_i_glide_ligand_efficiency_sa>  (1) 
-0.44198576483023028

>  <r_i_glide_lipo>  (1) 
-1.5441457699765233

>  <r_i_glide_metal>  (1) 
-0

>  <r_i_glide_rewards>  (1) 
-0.49033188959253104

>  <r_lp_Energy>  (1) 
18.733408999999998

>  <r_lp_tautomer_probability>  (1) 
1

>  <s_epik_cmdline>  (1) 
J2VwaWtfcHl0aG9uJywgJy1waHQnLCAnMS4wJywgJy1waCcsICc3LjQnLCAnLXRuJywgJzgnLCAnLW1hJywgJzUwMCcsICctaW1hZScsICc8aW5maWxlLm1hZT4nLCAnLW9tYWUnLCAnPG91dGZpbGUubWFlPic=

>  <s_epik_input>  (1) 
W09IXUMxMltDSF0oW0NIMl0xKVtDSDJdQyg9TylbQ0BASF0oT1tDSDNdKVtDQEBIXTJbQ0gyXVNjKFtjSF0zKVtjSF1bY0hdW2NIXWMzT0MoRikoRilG

>  <s_glide_docking_method>  (1) 
confgen

>  <s_i_glide_gridfile>  (1) 
gpcr_drd2_6luq_protein_autoprepared_prepared

>  <s_lp_Force_Field>  (1) 
S-OPLS

>  <s_lp_Variant>  (1) 
DiffSBDD_46-1

>  <s_m_source_file>  (1) 
generated_generic_title2_ligand_DiffSBDD_2026-06-23_prepared.sdf

>  <GenAI_Model>  (1) 
DiffSBDD

>  <Protein>  (1) 
generic_title2

$$$$
DiffSBDD_57
     RDKit          3D

  0  0  0  0  0  0  0  0  0  0999 V3000
M  V30 BEGIN CTAB
M  V30 COUNTS 63 67 0 0 1
M  V30 BEGIN ATOM
M  V30 1 C 6.102170 7.174741 -21.936563 0
M  V30 2 C 9.168112 5.592930 -18.675348 0
M  V30 3 C 17.569210 6.106801 -17.529992 0
M  V30 4 N 14.975411 10.117897 -17.985026 0
M  V30 5 C 9.892026 4.306007 -18.219902 0 CFG=2
M  V30 6 C 7.680842 3.488604 -17.257004 0
M  V30 7 C 6.753949 6.320773 -19.616837 0 CFG=2
M  V30 8 C 9.181695 3.669829 -17.007730 0
M  V30 9 C 11.764872 5.380844 -16.865446 0
M  V30 10 C 5.722328 5.758056 -22.459502 0
M  V30 11 C 18.263835 9.556908 -19.008288 0
M  V30 12 F 18.538625 10.390207 -18.005670 0
M  V30 13 C 13.131367 5.564587 -16.577608 0
M  V30 14 F 19.400581 9.217072 -19.615623 0
M  V30 15 C 14.110339 4.898369 -17.343590 0
M  V30 16 O 15.444148 5.063459 -17.053371 0
M  V30 17 C 16.122983 8.273451 -18.443090 0
M  V30 18 C 5.729204 4.135658 -20.380938 0
M  V30 19 C 4.911058 4.857234 -21.483339 0
M  V30 20 C 18.269531 7.219198 -18.015142 0
M  V30 21 C 5.499784 6.827483 -18.886797 0
M  V30 22 C 13.720112 4.050401 -18.399672 0
M  V30 23 C 12.353644 3.863837 -18.688289 0
M  V30 24 N 15.438866 7.194969 -17.985028 0
M  V30 25 C 7.114445 7.258886 -20.758401 0
M  V30 26 N 15.384605 9.381627 -18.897428 0
M  V30 27 N 7.062918 4.781559 -17.614845 0 CHG=1
M  V30 28 C 7.006384 4.888360 -20.084768 0 CFG=2
M  V30 29 C 17.539673 8.325774 -18.480929 0
M  V30 30 C 11.371899 4.525600 -17.920321 0
M  V30 31 C 16.163450 6.138984 -17.533566 0
M  V30 32 C 7.662760 5.383297 -18.825253 0 CFG=2
M  V30 33 H 6.519769 7.741115 -22.769696 0
M  V30 34 H 5.186803 7.706538 -21.678732 0
M  V30 35 H 9.328476 6.390224 -17.953037 0
M  V30 36 H 9.589693 5.943029 -19.618043 0
M  V30 37 H 18.098889 5.243215 -17.158624 0
M  V30 38 H 14.388992 10.884381 -18.374421 0
M  V30 39 H 9.822598 3.593076 -19.043367 0
M  V30 40 H 7.510555 2.768790 -18.059159 0
M  V30 41 H 7.194132 3.092129 -16.365265 0
M  V30 42 H 9.634777 2.702905 -16.785028 0
M  V30 43 H 9.318951 4.285281 -16.117781 0
M  V30 44 H 11.018841 5.889792 -16.273532 0
M  V30 45 H 6.606854 5.232947 -22.820805 0
M  V30 46 H 5.106853 5.905645 -23.347991 0
M  V30 47 H 17.680459 10.106038 -19.747274 0
M  V30 48 H 13.429706 6.213410 -15.767227 0
M  V30 49 H 6.004103 3.136536 -20.721340 0
M  V30 50 H 5.127522 3.997845 -19.483303 0
M  V30 51 H 4.382017 4.098447 -22.061049 0
M  V30 52 H 4.127915 5.458740 -21.022450 0
M  V30 53 H 19.349359 7.226662 -18.026249 0
M  V30 54 H 4.782556 7.278195 -19.569690 0
M  V30 55 H 4.967779 6.034974 -18.363761 0
M  V30 56 H 5.775427 7.590229 -18.158394 0
M  V30 57 H 14.469362 3.538734 -18.985209 0
M  V30 58 H 12.059246 3.208641 -19.495026 0
M  V30 59 H 8.113299 7.020285 -21.125246 0
M  V30 60 H 7.171122 8.281751 -20.385024 0
M  V30 61 H 6.077271 4.643386 -17.782306 0
M  V30 62 H 7.739107 4.735625 -20.876144 0
M  V30 63 H 7.175656 5.424680 -16.844186 0
M  V30 END ATOM
M  V30 BEGIN BOND
M  V30 1 1 5 2
M  V30 2 1 8 5
M  V30 3 1 8 6
M  V30 4 1 10 1
M  V30 5 1 12 11
M  V30 6 2 13 9
M  V30 7 1 14 11
M  V30 8 1 15 13
M  V30 9 1 16 15
M  V30 10 1 19 10
M  V30 11 1 19 18
M  V30 12 2 20 3
M  V30 13 1 7 21 CFG=1
M  V30 14 2 22 15
M  V30 15 1 23 22
M  V30 16 1 24 17
M  V30 17 1 25 1
M  V30 18 1 25 7
M  V30 19 2 26 4
M  V30 20 1 26 17
M  V30 21 1 27 6
M  V30 22 1 28 7
M  V30 23 1 28 18
M  V30 24 1 29 11
M  V30 25 2 29 17
M  V30 26 1 29 20
M  V30 27 1 30 5
M  V30 28 1 30 9
M  V30 29 2 30 23
M  V30 30 1 31 3
M  V30 31 1 31 16
M  V30 32 2 31 24
M  V30 33 1 32 2 CFG=3
M  V30 34 1 32 7
M  V30 35 1 32 27
M  V30 36 1 32 28
M  V30 37 1 33 1
M  V30 38 1 34 1
M  V30 39 1 35 2
M  V30 40 1 36 2
M  V30 41 1 37 3
M  V30 42 1 38 4
M  V30 43 1 5 39 CFG=3
M  V30 44 1 40 6
M  V30 45 1 41 6
M  V30 46 1 42 8
M  V30 47 1 43 8
M  V30 48 1 44 9
M  V30 49 1 45 10
M  V30 50 1 46 10
M  V30 51 1 47 11
M  V30 52 1 48 13
M  V30 53 1 49 18
M  V30 54 1 50 18
M  V30 55 1 51 19
M  V30 56 1 52 19
M  V30 57 1 53 20
M  V30 58 1 54 21
M  V30 59 1 55 21
M  V30 60 1 56 21
M  V30 61 1 57 22
M  V30 62 1 58 23
M  V30 63 1 59 25
M  V30 64 1 60 25
M  V30 65 1 61 27
M  V30 66 1 28 62 CFG=3
M  V30 67 1 63 27
M  V30 END BOND
M  V30 END CTAB
M  END
>  <i_epik_Tot_Q>  (1) 
1

>  <i_epik_Tot_abs_Q>  (1) 
1

>  <i_i_glide_confnum>  (1) 
4

>  <i_i_glide_lignum>  (1) 
91

>  <i_i_glide_posenum>  (1) 
150

>  <i_i_glide_rotatable_bonds>  (1) 
5

>  <i_lp_mmshare_version>  (1) 
72125

>  <i_m_source_file_index>  (1) 
58

>  <i_f3d_flags>  (1) 
0

>  <num_sample>  (1) 
100

>  <b_lp_Chiralities_Consistent>  (1) 
1

>  <r_epik_Charging_Adjusted_Penalty>  (1) 
0.05439887129790702

>  <r_epik_Ionization_Penalty>  (1) 
0.027199436685871044

>  <r_epik_Ionization_Penalty_Charging>  (1) 
0.02719943564895351

>  <r_epik_Ionization_Penalty_Neutral>  (1) 
1.0369175350527502e-09

>  <r_epik_State_Penalty>  (1) 
0.02719943564895351

>  <r_glide_ring_energy>  (1) 
0

>  <r_i_docking_score>  (1) 
-3.6624351982791516

>  <r_i_glide_ecoul>  (1) 
-0.41666450540650835

>  <r_i_glide_eff_state_penalty>  (1) 
0.02719943564895351

>  <r_i_glide_einternal>  (1) 
3.4384675920743355

>  <r_i_glide_emodel>  (1) 
-32.979852504022013

>  <r_i_glide_emodel_strain>  (1) 
1.9291358412612851

>  <r_i_glide_energy>  (1) 
-31.945900067749289

>  <r_i_glide_erotb>  (1) 
0.3073767375315366

>  <r_i_glide_esite>  (1) 
0

>  <r_i_glide_evdw>  (1) 
-31.52923556234278

>  <r_i_glide_gscore>  (1) 
-3.689634633928105

>  <r_i_glide_gscore_strain>  (1) 
0

>  <r_i_glide_hbond>  (1) 
0

>  <r_i_glide_ligand_efficiency>  (1) 
-0.11445109994622349

>  <r_i_glide_ligand_efficiency_ln>  (1) 
-0.82011907510765292

>  <r_i_glide_ligand_efficiency_sa>  (1) 
-0.36335959290710546

>  <r_i_glide_lipo>  (1) 
-1.7846453920131049

>  <r_i_glide_metal>  (1) 
-0

>  <r_i_glide_rewards>  (1) 
-0.57340452551842125

>  <r_lp_Energy>  (1) 
78.297426000000002

>  <r_lp_tautomer_probability>  (1) 
1

>  <s_epik_cmdline>  (1) 
J2VwaWtfcHl0aG9uJywgJy1waHQnLCAnMS4wJywgJy1waCcsICc3LjQnLCAnLXRuJywgJzgnLCAnLW1hJywgJzUwMCcsICctaW1hZScsICc8aW5maWxlLm1hZT4nLCAnLW9tYWUnLCAnPG91dGZpbGUubWFlPic=

>  <s_epik_input>  (1) 
W0NIMl0xW0NIMl1bQ0gyXVtDSDJdW0NIMl1bQ0BIXTJbQ0BAXTEoW0NIM10pW0NAXTIzW0NIMl1bQ0BIXShbQ0gyXVtDSDJdW05IXTMpYyhbY0hdW2NIXTQpW2NIXVtjSF1jNE9jKFtjSF1bY0hdYzVbQ0hdKEYpRiluYzVcTj1OXFtIXQ==

>  <s_glide_docking_method>  (1) 
confgen

>  <s_i_glide_gridfile>  (1) 
gpcr_drd2_6luq_protein_autoprepared_prepared

>  <s_lp_Force_Field>  (1) 
S-OPLS

>  <s_lp_Variant>  (1) 
DiffSBDD_57-1

>  <s_m_source_file>  (1) 
generated_generic_title2_ligand_DiffSBDD_2026-06-23_prepared.sdf

>  <GenAI_Model>  (1) 
DiffSBDD

>  <Protein>  (1) 
generic_title2

$$$$
DiffSBDD_32
     RDKit          3D

  0  0  0  0  0  0  0  0  0  0999 V3000
M  V30 BEGIN CTAB
M  V30 COUNTS 76 79 0 0 1
M  V30 BEGIN ATOM
M  V30 1 O 9.360541 8.459001 -10.293188 0
M  V30 2 C 7.848103 3.304735 -15.521727 0 CFG=1
M  V30 3 F 11.798759 6.193045 -5.315549 0
M  V30 4 O 9.727598 4.543392 -10.873750 0
M  V30 5 O 5.784444 7.589475 -12.166609 0
M  V30 6 C 7.393350 5.883753 -16.085539 0
M  V30 7 C 8.591350 5.495243 -8.284012 0
M  V30 8 C 11.462952 7.146842 -9.642592 0 CFG=1
M  V30 9 O 10.175984 6.724629 -7.193804 0
M  V30 10 O 9.772987 8.790025 -6.336528 0
M  V30 11 C 9.748069 5.808143 -11.473489 0 CFG=1
M  V30 12 C 5.676970 7.019523 -14.485021 0
M  V30 13 C 6.912376 4.438927 -15.943805 0
M  V30 14 O 8.651546 7.955053 -11.588614 0
M  V30 15 S 12.728194 8.390248 -9.886286 0
M  V30 16 C 6.255727 6.883127 -15.896052 0
M  V30 17 C 12.804097 10.031246 -5.927205 0
M  V30 18 C 8.948829 3.025352 -16.582350 0
M  V30 19 C 10.008079 7.401030 -9.617920 0 CFG=2
M  V30 20 C 12.705724 9.340127 -4.583665 0 CFG=2
M  V30 21 O 12.575136 9.186529 -7.009311 0
M  V30 22 C 5.767656 7.589517 -16.925408 0
M  V30 23 F 12.975353 6.624204 -2.784740 0
M  V30 24 C 7.346044 3.428371 -12.863504 0
M  V30 25 O 12.109871 7.778473 -2.838123 0
M  V30 26 C 11.808149 8.205100 -4.150218 0 CFG=2
M  V30 27 C 7.513526 6.074092 -12.782608 0 CFG=1
M  V30 28 C 8.379569 6.527855 -11.575923 0 CFG=1
M  V30 29 C 10.982664 7.190999 -4.982473 0 CFG=1
M  V30 30 C 10.070534 4.073271 -16.726722 0
M  V30 31 N 11.375162 9.586042 -4.034880 0
M  V30 32 C 10.710572 6.790646 -10.872809 0 CFG=1
M  V30 33 C 8.329322 3.306481 -14.045192 0
M  V30 34 C 10.240575 7.661551 -6.242065 0
M  V30 35 C 9.304106 6.866357 -8.314700 0 CFG=1
M  V30 36 C 6.684988 4.776486 -12.536168 0
M  V30 37 C 6.615183 7.232147 -13.265448 0 CFG=2
M  V30 38 H 7.211104 2.420601 -15.583726 0
M  V30 39 H 9.429133 4.630665 -9.981861 0
M  V30 40 H 6.319178 7.699380 -11.383380 0
M  V30 41 H 8.266012 6.129300 -15.499386 0
M  V30 42 H 7.752237 5.990564 -17.109848 0
M  V30 43 H 7.757261 5.381906 -8.967044 0
M  V30 44 H 9.283033 4.661112 -8.400281 0
M  V30 45 H 8.135296 5.368184 -7.301292 0
M  V30 46 H 11.763680 6.390295 -8.950966 0
M  V30 47 H 10.134140 5.626878 -12.476247 0
M  V30 48 H 5.036926 7.901093 -14.521479 0
M  V30 49 H 4.978217 6.206163 -14.333317 0
M  V30 50 H 6.575725 4.175536 -16.943225 0
M  V30 51 H 6.056526 4.401345 -15.280741 0
M  V30 52 H 12.702148 8.930961 -8.655447 0
M  V30 53 H 13.822032 10.388929 -6.033337 0
M  V30 54 H 12.158646 10.910335 -5.984850 0
M  V30 55 H 9.395033 2.051796 -16.379063 0
M  V30 56 H 8.479900 2.911565 -17.561750 0
M  V30 57 H 13.455721 9.657632 -3.861234 0
M  V30 58 H 11.639898 9.056131 -7.084872 0
M  V30 59 H 4.954283 8.289494 -16.788251 0
M  V30 60 H 6.175149 7.476139 -17.921240 0
M  V30 61 H 7.930230 3.166701 -11.985656 0
M  V30 62 H 6.578548 2.657382 -12.936042 0
M  V30 63 H 8.235952 5.889797 -13.554849 0
M  V30 64 H 7.774907 6.361555 -10.704260 0
M  V30 65 H 10.235927 6.738896 -4.331936 0
M  V30 66 H 10.888559 3.675025 -17.327478 0
M  V30 67 H 9.726848 4.969529 -17.237851 0
M  V30 68 H 10.487697 4.387691 -15.770668 0
M  V30 69 H 10.726383 9.789555 -4.792000 0
M  V30 70 H 11.027483 7.464753 -11.668490 0
M  V30 71 H 9.166070 3.989568 -13.907703 0
M  V30 72 H 8.699631 2.295146 -13.872675 0
M  V30 73 H 8.576021 7.616046 -8.022306 0
M  V30 74 H 6.338204 4.755888 -11.500978 0
M  V30 75 H 5.757850 4.785254 -13.093290 0
M  V30 76 H 7.276009 8.055824 -13.523984 0
M  V30 END ATOM
M  V30 BEGIN BOND
M  V30 1 1 11 4
M  V30 2 1 13 2
M  V30 3 1 13 6
M  V30 4 1 14 1
M  V30 5 1 15 8
M  V30 6 1 16 6
M  V30 7 1 16 12
M  V30 8 1 18 2
M  V30 9 1 19 1 CFG=3
M  V30 10 1 19 8
M  V30 11 1 20 17
M  V30 12 1 21 17
M  V30 13 2 22 16
M  V30 14 1 25 23
M  V30 15 1 26 20
M  V30 16 1 26 25 CFG=1
M  V30 17 1 28 11
M  V30 18 1 28 14
M  V30 19 1 28 27
M  V30 20 1 29 3
M  V30 21 1 29 26
M  V30 22 1 30 18
M  V30 23 1 31 20
M  V30 24 1 31 26
M  V30 25 1 32 8
M  V30 26 1 32 11
M  V30 27 1 32 19
M  V30 28 1 33 2
M  V30 29 1 33 24
M  V30 30 1 34 9
M  V30 31 2 34 10
M  V30 32 1 34 29
M  V30 33 1 35 7
M  V30 34 1 35 9
M  V30 35 1 35 19
M  V30 36 1 36 24
M  V30 37 1 36 27
M  V30 38 1 37 5
M  V30 39 1 37 12
M  V30 40 1 37 27
M  V30 41 1 2 38 CFG=1
M  V30 42 1 39 4
M  V30 43 1 40 5
M  V30 44 1 41 6
M  V30 45 1 42 6
M  V30 46 1 43 7
M  V30 47 1 44 7
M  V30 48 1 45 7
M  V30 49 1 8 46 CFG=1
M  V30 50 1 11 47 CFG=3
M  V30 51 1 48 12
M  V30 52 1 49 12
M  V30 53 1 50 13
M  V30 54 1 51 13
M  V30 55 1 52 15
M  V30 56 1 53 17
M  V30 57 1 54 17
M  V30 58 1 55 18
M  V30 59 1 56 18
M  V30 60 1 20 57 CFG=1
M  V30 61 1 58 21
M  V30 62 1 59 22
M  V30 63 1 60 22
M  V30 64 1 61 24
M  V30 65 1 62 24
M  V30 66 1 27 63 CFG=3
M  V30 67 1 28 64 CFG=1
M  V30 68 1 29 65 CFG=1
M  V30 69 1 66 30
M  V30 70 1 67 30
M  V30 71 1 68 30
M  V30 72 1 69 31
M  V30 73 1 32 70 CFG=3
M  V30 74 1 71 33
M  V30 75 1 72 33
M  V30 76 1 35 73 CFG=1
M  V30 77 1 74 36
M  V30 78 1 75 36
M  V30 79 1 37 76 CFG=3
M  V30 END BOND
M  V30 END CTAB
M  END
>  <i_epik_Tot_Q>  (1) 
0

>  <i_epik_Tot_abs_Q>  (1) 
0

>  <i_i_glide_confnum>  (1) 
257

>  <i_i_glide_lignum>  (1) 
54

>  <i_i_glide_posenum>  (1) 
69

>  <i_i_glide_rotatable_bonds>  (1) 
13

>  <i_lp_mmshare_version>  (1) 
72125

>  <i_m_source_file_index>  (1) 
33

>  <i_f3d_flags>  (1) 
0

>  <num_sample>  (1) 
100

>  <b_lp_Chiralities_Consistent>  (1) 
1

>  <r_epik_Charging_Adjusted_Penalty>  (1) 
0.093290770244600377

>  <r_epik_Ionization_Penalty>  (1) 
0.093291904882598309

>  <r_epik_Ionization_Penalty_Charging>  (1) 
0

>  <r_epik_Ionization_Penalty_Neutral>  (1) 
0.093291904882598309

>  <r_epik_State_Penalty>  (1) 
0.093290770244600377

>  <r_glide_ring_energy>  (1) 
0

>  <r_i_docking_score>  (1) 
-3.6547420116243439

>  <r_i_glide_ecoul>  (1) 
-3.7528098807431043

>  <r_i_glide_eff_state_penalty>  (1) 
0.093290770244600377

>  <r_i_glide_einternal>  (1) 
26.450402779608208

>  <r_i_glide_emodel>  (1) 
-15.552408396355979

>  <r_i_glide_emodel_strain>  (1) 
10.795299502000589

>  <r_i_glide_energy>  (1) 
-33.476966658316854

>  <r_i_glide_erotb>  (1) 
0.4066656280010113

>  <r_i_glide_esite>  (1) 
-0.20000000000000001

>  <r_i_glide_evdw>  (1) 
-29.724156777573747

>  <r_i_glide_gscore>  (1) 
-3.7480327818689441

>  <r_i_glide_gscore_strain>  (1) 
1.6988248755001472

>  <r_i_glide_hbond>  (1) 
-0.16

>  <r_i_glide_ligand_efficiency>  (1) 
-0.098776811124982267

>  <r_i_glide_ligand_efficiency_ln>  (1) 
-0.79262786301230381

>  <r_i_glide_ligand_efficiency_sa>  (1) 
-0.32914624846657103

>  <r_i_glide_lipo>  (1) 
-2.167073207575728

>  <r_i_glide_metal>  (1) 
-0

>  <r_i_glide_rewards>  (1) 
-1.2773207568042211

>  <r_lp_Energy>  (1) 
49.816001

>  <s_epik_Chemistry_Notes>  (1) 
This compound has an ester and may undergo hydrolysis at high or low pH.

>  <s_epik_cmdline>  (1) 
J2VwaWtfcHl0aG9uJywgJy1waHQnLCAnMS4wJywgJy1waCcsICc3LjQnLCAnLXRuJywgJzgnLCAnLW1hJywgJzUwMCcsICctaW1hZScsICc8aW5maWxlLm1hZT4nLCAnLW9tYWUnLCAnPG91dGZpbGUubWFlPic=

>  <s_epik_input>  (1) 
W0NIM11bQ0gyXVtDQEBIXTFbQ0gyXVtDSDJdQyg9W0NIMl0pW0NIMl1bQ0BASF0oW09IXSlbQ0BIXShbQ0gyXVtDSDJdW0NIMl0xKVtDQEhdKE9PMilbQ0BIXShbT0hdKVtDQEhdKFtDQEhdM1tTSF0pW0NAXTIzW0NAQEhdKFtDSDNdKU9DKD1PKVtDQEBIXShGKUM0KE9GKVtDQEhdKFtOSF00KVtDSDJdW09IXQ==

>  <s_glide_docking_method>  (1) 
confgen

>  <s_i_glide_gridfile>  (1) 
gpcr_drd2_6luq_protein_autoprepared_prepared

>  <s_lp_Force_Field>  (1) 
S-OPLS

>  <s_lp_Variant>  (1) 
DiffSBDD_32-1

>  <s_m_source_file>  (1) 
generated_generic_title2_ligand_DiffSBDD_2026-06-23_prepared.sdf

>  <GenAI_Model>  (1) 
DiffSBDD

>  <Protein>  (1) 
generic_title2

$$$$
DiffSBDD_90
     RDKit          3D

  0  0  0  0  0  0  0  0  0  0999 V3000
M  V30 BEGIN CTAB
M  V30 COUNTS 80 84 0 0 1
M  V30 BEGIN ATOM
M  V30 1 C 9.391571 5.413784 -17.653194 0
M  V30 2 C 9.558802 4.322950 -16.593875 0 CFG=1
M  V30 3 C 7.910319 4.526117 -13.338381 0
M  V30 4 C 14.155943 4.418153 -16.863542 0 CFG=2
M  V30 5 C 7.223968 4.663925 -15.406982 0
M  V30 6 C 7.783721 4.537925 -11.896545 0 CFG=2
M  V30 7 C 11.456930 2.602163 -19.046808 0 CFG=2
M  V30 8 O 11.323055 5.325468 -18.851502 0 CHG=-1
M  V30 9 C 10.115493 4.869615 -18.901618 0 CFG=1
M  V30 10 C 13.331027 6.773648 -16.181105 0
M  V30 11 O 13.350808 7.356713 -18.890429 0
M  V30 12 C 8.589451 4.456052 -15.448047 0
M  V30 13 C 8.302401 2.195386 -17.778032 0 CFG=2
M  V30 14 O 15.274366 7.790909 -19.948682 0 CHG=-1
M  V30 15 O 15.274701 3.737765 -16.923981 0 CHG=-1
M  V30 16 C 12.700007 2.687376 -18.050085 0 CFG=2
M  V30 17 N 13.423970 4.008418 -18.093833 0 CHG=1
M  V30 18 N 10.219208 3.400165 -18.708903 0 CFG=2 CHG=1
M  V30 19 C 17.570306 6.019570 -17.064033 0
M  V30 20 C 13.727871 1.538454 -18.314843 0
M  V30 21 O 7.207321 2.149027 -16.894155 0
M  V30 22 O 14.524887 1.277222 -17.185639 0
M  V30 23 O 9.731472 -0.611791 -18.047170 0
M  V30 24 C 9.505080 1.577327 -17.099128 0 CFG=1
M  V30 25 C 14.586036 7.313601 -19.016298 0
M  V30 26 C 10.896947 1.162146 -19.198238 0
M  V30 27 N 6.885173 4.668226 -14.082921 0
M  V30 28 O 17.355010 5.601587 -15.927460 0
M  V30 29 C 6.179964 4.626572 -11.924200 0
M  V30 30 N 8.975456 4.390836 -14.121303 0 CHG=1
M  V30 31 C 14.517363 5.944746 -16.738409 0 CFG=2
M  V30 32 O 7.229848 7.245392 -12.449047 0
M  V30 33 O 8.391775 5.640989 -11.215564 0
M  V30 34 C 8.431795 6.896405 -11.836770 0
M  V30 35 C 18.975024 5.990228 -17.627519 0
M  V30 36 C 15.365707 6.602076 -17.910916 0
M  V30 37 C 10.416081 0.602545 -17.837301 0 CFG=2
M  V30 38 C 7.375232 7.816475 -13.736904 0
M  V30 39 N 16.653845 6.553469 -17.954077 0
M  V30 40 C 5.627227 4.807908 -13.425501 0
M  V30 41 C 9.521555 3.057036 -17.453323 0 CFG=1
M  V30 42 H 8.335073 5.544299 -17.890461 0
M  V30 43 H 9.775532 6.379630 -17.322827 0
M  V30 44 H 10.570165 4.402005 -16.189670 0
M  V30 45 H 13.454614 4.238448 -16.047514 0
M  V30 46 H 6.504121 4.790256 -16.194971 0
M  V30 47 H 8.151246 3.589978 -11.514024 0
M  V30 48 H 11.791692 2.924075 -20.034412 0
M  V30 49 H 9.472141 5.030425 -19.768211 0
M  V30 50 H 13.563526 7.838504 -16.148219 0
M  V30 51 H 12.419024 6.643625 -16.761645 0
M  V30 52 H 13.090736 6.465442 -15.162836 0
M  V30 53 H 8.061471 1.901296 -18.798308 0
M  V30 54 H 12.303825 2.557768 -17.043461 0
M  V30 55 H 14.081187 4.033058 -18.855820 0
M  V30 56 H 14.363489 1.770776 -19.170714 0
M  V30 57 H 13.280672 0.571202 -18.512396 0
M  V30 58 H 6.827176 1.281949 -16.928161 0
M  V30 59 H 14.933830 2.133869 -16.960654 0
M  V30 60 H 9.508740 -0.999690 -17.212091 0
M  V30 61 H 9.362925 1.331796 -16.049707 0
M  V30 62 H 10.057831 1.179704 -19.895993 0
M  V30 63 H 11.596537 0.484785 -19.685019 0
M  V30 64 H 5.775278 3.701636 -11.511838 0
M  V30 65 H 5.816827 5.423432 -11.273379 0
M  V30 66 H 15.122668 6.002835 -15.842711 0
M  V30 67 H 8.649636 7.645385 -11.074625 0
M  V30 68 H 9.266071 6.891753 -12.539653 0
M  V30 69 H 19.290156 6.996734 -17.901843 0
M  V30 70 H 19.674357 5.590434 -16.893027 0
M  V30 71 H 18.975422 5.387977 -18.535617 0
M  V30 72 H 11.271677 0.389430 -17.193599 0
M  V30 73 H 6.405096 7.875373 -14.229890 0
M  V30 74 H 7.775473 8.822579 -13.657237 0
M  V30 75 H 8.010102 7.214811 -14.383479 0
M  V30 76 H 5.209407 5.793506 -13.629762 0
M  V30 77 H 4.954671 4.010166 -13.735314 0
M  V30 78 H 9.928172 4.264465 -13.790663 0
M  V30 79 H 12.685858 4.711544 -18.307382 0
M  V30 80 H 9.580227 3.080344 -19.420451 0
M  V30 END ATOM
M  V30 BEGIN BOND
M  V30 1 1 2 1
M  V30 2 1 6 3
M  V30 3 1 9 1
M  V30 4 1 9 8
M  V30 5 1 12 2
M  V30 6 2 12 5
M  V30 7 1 15 4
M  V30 8 1 16 7
M  V30 9 1 17 4
M  V30 10 1 17 16
M  V30 11 1 18 7
M  V30 12 1 18 9
M  V30 13 1 20 16
M  V30 14 1 21 13
M  V30 15 1 22 20
M  V30 16 1 24 13
M  V30 17 2 25 11
M  V30 18 1 25 14
M  V30 19 1 26 7
M  V30 20 1 27 3
M  V30 21 1 27 5
M  V30 22 2 28 19
M  V30 23 1 29 6
M  V30 24 2 30 3
M  V30 25 1 30 12
M  V30 26 1 31 4
M  V30 27 1 31 10
M  V30 28 1 33 6
M  V30 29 1 34 32
M  V30 30 1 34 33
M  V30 31 1 35 19
M  V30 32 1 36 25
M  V30 33 1 36 31
M  V30 34 1 37 23
M  V30 35 1 37 24
M  V30 36 1 37 26
M  V30 37 1 38 32
M  V30 38 1 39 19
M  V30 39 2 39 36
M  V30 40 1 40 27
M  V30 41 1 40 29
M  V30 42 1 41 2 CFG=1
M  V30 43 1 41 13
M  V30 44 1 41 18
M  V30 45 1 41 24
M  V30 46 1 42 1
M  V30 47 1 43 1
M  V30 48 1 2 44 CFG=1
M  V30 49 1 4 45 CFG=1
M  V30 50 1 46 5
M  V30 51 1 6 47 CFG=1
M  V30 52 1 7 48 CFG=3
M  V30 53 1 9 49 CFG=3
M  V30 54 1 50 10
M  V30 55 1 51 10
M  V30 56 1 52 10
M  V30 57 1 13 53 CFG=3
M  V30 58 1 16 54 CFG=1
M  V30 59 1 55 17
M  V30 60 1 56 20
M  V30 61 1 57 20
M  V30 62 1 58 21
M  V30 63 1 59 22
M  V30 64 1 60 23
M  V30 65 1 24 61 CFG=1
M  V30 66 1 62 26
M  V30 67 1 63 26
M  V30 68 1 64 29
M  V30 69 1 65 29
M  V30 70 1 31 66 CFG=1
M  V30 71 1 67 34
M  V30 72 1 68 34
M  V30 73 1 69 35
M  V30 74 1 70 35
M  V30 75 1 71 35
M  V30 76 1 37 72 CFG=1
M  V30 77 1 73 38
M  V30 78 1 74 38
M  V30 79 1 75 38
M  V30 80 1 76 40
M  V30 81 1 77 40
M  V30 82 1 78 30
M  V30 83 1 79 17
M  V30 84 1 18 80 CFG=3
M  V30 END BOND
M  V30 END CTAB
M  END
>  <i_epik_Tot_Q>  (1) 
0

>  <i_epik_Tot_abs_Q>  (1) 
6

>  <i_i_glide_confnum>  (1) 
2318

>  <i_i_glide_lignum>  (1) 
167

>  <i_i_glide_posenum>  (1) 
86

>  <i_i_glide_rotatable_bonds>  (1) 
15

>  <i_lp_mmshare_version>  (1) 
72125

>  <i_m_source_file_index>  (1) 
91

>  <i_f3d_flags>  (1) 
0

>  <num_sample>  (1) 
100

>  <b_lp_Chiralities_Consistent>  (1) 
1

>  <r_epik_Charging_Adjusted_Penalty>  (1) 
0.35079833336250127

>  <r_epik_Ionization_Penalty>  (1) 
1.4702178244609605

>  <r_epik_Ionization_Penalty_Charging>  (1) 
0.099885809697688246

>  <r_epik_Ionization_Penalty_Neutral>  (1) 
1.3703320147632723

>  <r_epik_State_Penalty>  (1) 
0.25091252366481304

>  <r_glide_ring_energy>  (1) 
0

>  <r_i_docking_score>  (1) 
-3.6526964278351306

>  <r_i_glide_ecoul>  (1) 
-4.0537312173603688

>  <r_i_glide_eff_state_penalty>  (1) 
0.25091252366481304

>  <r_i_glide_einternal>  (1) 
14.892751805378953

>  <r_i_glide_emodel>  (1) 
-35.622778592639129

>  <r_i_glide_emodel_strain>  (1) 
2.4666163000852634

>  <r_i_glide_energy>  (1) 
-34.726767657456335

>  <r_i_glide_erotb>  (1) 
0.57888693115673628

>  <r_i_glide_esite>  (1) 
-0.077581321520607621

>  <r_i_glide_evdw>  (1) 
-30.673036440095963

>  <r_i_glide_gscore>  (1) 
-3.9036089514999435

>  <r_i_glide_gscore_strain>  (1) 
0

>  <r_i_glide_hbond>  (1) 
0

>  <r_i_glide_ligand_efficiency>  (1) 
-0.089090156776466603

>  <r_i_glide_ligand_efficiency_ln>  (1) 
-0.77493170278163725

>  <r_i_glide_ligand_efficiency_sa>  (1) 
-0.30720221454501251

>  <r_i_glide_lipo>  (1) 
-1.586131669685134

>  <r_i_glide_metal>  (1) 
-0

>  <r_i_glide_rewards>  (1) 
-0.6770713868420849

>  <r_lp_Energy>  (1) 
74.620350999999999

>  <r_lp_tautomer_probability>  (1) 
1

>  <s_epik_Chemistry_Notes>  (1) 
This compound has an imine and may undergo hydrolysis. This compound contains an acetal/aminal-like group ( X-CH(R)-Y where X, Y are N, S, or O) that may be acid/base labile, releasing an aldehyde.

>  <s_epik_cmdline>  (1) 
J2VwaWtfcHl0aG9uJywgJy1waHQnLCAnMS4wJywgJy1waCcsICc3LjQnLCAnLXRuJywgJzgnLCAnLW1hJywgJzUwMCcsICctaW1hZScsICc8aW5maWxlLm1hZT4nLCAnLW9tYWUnLCAnPG91dGZpbGUubWFlPic=

>  <s_epik_input>  (1) 
W0NIM11PW0NIMl1PW0NASF0xW0NIMl1bQ0gyXW4oYzEyKVtjSF1jKG4yKVtDQEBIXTNbQ0gyXVtDQEBIXShbT0hdKU4oW0NAQF0zNDUpW0NASF0oW0NIMl1bQ0BIXShbT0hdKVtDQEBIXTVbQ0BIXTRbT0hdKVtDQEBIXShbQ0gyXVtPSF0pW05IXVtDQEBIXShbT0hdKVtDQEhdKFtDSDNdKUMoXEMoPU8pW09IXSk9Ti9DKD1PKVtDSDNd

>  <s_glide_docking_method>  (1) 
confgen

>  <s_i_glide_gridfile>  (1) 
gpcr_drd2_6luq_protein_autoprepared_prepared

>  <s_lp_Force_Field>  (1) 
S-OPLS

>  <s_lp_Variant>  (1) 
DiffSBDD_90-2

>  <s_m_source_file>  (1) 
generated_generic_title2_ligand_DiffSBDD_2026-06-23_prepared.sdf

>  <GenAI_Model>  (1) 
DiffSBDD

>  <Protein>  (1) 
generic_title2

$$$$
DiffSBDD_56
     RDKit          3D

  0  0  0  0  0  0  0  0  0  0999 V3000
M  V30 BEGIN CTAB
M  V30 COUNTS 88 91 0 0 1
M  V30 BEGIN ATOM
M  V30 1 C 7.783355 4.021026 -20.063507 0 CFG=1
M  V30 2 C 11.098511 4.017016 -17.737229 0
M  V30 3 C 18.267178 4.500536 -23.016373 0
M  V30 4 C 15.564816 0.495758 -21.424271 0
M  V30 5 C 10.153699 4.646733 -18.810826 0 CFG=1
M  V30 6 C 14.066921 0.644022 -21.266621 0
M  V30 7 F 4.614540 6.192643 -16.658786 0
M  V30 8 C 7.290464 4.915079 -17.195688 0
M  V30 9 C 14.629989 5.661622 -19.178236 0 CFG=2
M  V30 10 O 7.979274 6.723855 -19.715597 0
M  V30 11 C 15.400672 5.994903 -21.601061 0
M  V30 12 F 15.997829 0.994511 -22.580924 0
M  V30 13 O 11.388555 4.939556 -16.706128 0
M  V30 14 C 12.234963 5.907092 -19.960424 0 CFG=2
M  V30 15 F 12.769794 1.491277 -19.376507 0
M  V30 16 O 10.215880 5.582560 -21.097369 0
M  V30 17 C 14.657928 6.257019 -17.751653 0
M  V30 18 C 5.390621 6.590184 -17.663076 0
M  V30 19 S 6.960306 5.671573 -19.843563 0
M  V30 20 C 16.152275 1.174815 -20.169091 0 CFG=2
M  V30 21 N 15.084762 1.258370 -19.164235 0
M  V30 22 O 5.891530 5.807510 -20.844076 0
M  V30 23 F 15.872197 -0.802606 -21.394688 0
M  V30 24 C 14.140709 -0.049815 -17.303341 0
M  V30 25 C 10.996175 4.957599 -20.106039 0 CFG=2
M  V30 26 C 8.052735 3.640317 -17.623551 0
M  V30 27 O 10.971017 8.000026 -19.946768 0
M  V30 28 C 16.786897 2.573878 -20.406275 0
M  V30 29 C 14.602416 -0.051323 -18.743194 0 CFG=1
M  V30 30 O 13.323219 5.129500 -19.439371 0
M  V30 31 C 8.148571 3.707141 -21.533297 0
M  V30 32 C 8.858855 3.737314 -18.961062 0 CFG=1
M  V30 33 C 11.916590 7.236402 -19.225108 0
M  V30 34 F 6.175225 7.552013 -17.189088 0
M  V30 35 C 6.204403 5.384659 -18.188392 0 CFG=1
M  V30 36 O 7.266151 2.755195 -22.096463 0
M  V30 37 C 15.568045 4.435930 -19.177173 0
M  V30 38 N 16.332963 4.843355 -21.500404 0 CFG=1 CHG=1
M  V30 39 C 15.815345 3.789744 -20.569717 0 CFG=1
M  V30 40 C 13.862139 0.744007 -19.779665 0 CFG=2
M  V30 41 C 15.168267 6.654336 -20.234816 0
M  V30 42 F 4.601398 7.090240 -18.612150 0
M  V30 43 C 16.747796 4.368303 -22.848095 0
M  V30 44 H 6.969013 3.328147 -19.851729 0
M  V30 45 H 12.029020 3.654155 -18.167101 0
M  V30 46 H 10.689418 3.119689 -17.279721 0
M  V30 47 H 18.588125 4.097227 -23.974377 0
M  V30 48 H 18.576530 5.545661 -22.978445 0
M  V30 49 H 18.816963 3.964295 -22.243381 0
M  V30 50 H 9.809450 5.605199 -18.425788 0
M  V30 51 H 13.505379 -0.190083 -21.688634 0
M  V30 52 H 13.713776 1.562634 -21.735724 0
M  V30 53 H 6.826525 4.730222 -16.226366 0
M  V30 54 H 8.002073 5.722753 -17.026755 0
M  V30 55 H 14.458936 5.662160 -22.039121 0
M  V30 56 H 15.813876 6.743007 -22.279516 0
M  V30 57 H 11.873625 4.498298 -16.022641 0
M  V30 58 H 12.549241 6.177927 -20.968443 0
M  V30 59 H 9.869818 6.386488 -20.720956 0
M  V30 60 H 15.671863 6.531049 -17.459027 0
M  V30 61 H 14.058492 7.154002 -17.631894 0
M  V30 62 H 14.295525 5.533375 -17.020529 0
M  V30 63 H 16.946914 0.537132 -19.776396 0
M  V30 64 H 13.371356 -0.810853 -17.183814 0
M  V30 65 H 14.973651 -0.272880 -16.637916 0
M  V30 66 H 13.717661 0.914316 -17.015473 0
M  V30 67 H 11.335158 4.012404 -20.532518 0
M  V30 68 H 7.332936 2.824439 -17.702304 0
M  V30 69 H 8.680550 3.341706 -16.787506 0
M  V30 70 H 11.363247 8.289198 -20.757103 0
M  V30 71 H 17.454491 2.461507 -21.255817 0
M  V30 72 H 17.471287 2.785270 -19.585140 0
M  V30 73 H 15.146763 -0.938210 -19.059063 0
M  V30 74 H 8.101527 4.606694 -22.148860 0
M  V30 75 H 9.156413 3.300685 -21.612771 0
M  V30 76 H 9.231166 2.733611 -19.171770 0
M  V30 77 H 11.563196 7.060814 -18.212551 0
M  V30 78 H 12.784296 7.882861 -19.145394 0
M  V30 79 H 5.498898 4.576800 -18.377423 0
M  V30 80 H 7.415855 1.913452 -21.692951 0
M  V30 81 H 16.533461 4.738320 -18.767949 0
M  V30 82 H 15.174085 3.705376 -18.472663 0
M  V30 83 H 14.868516 3.440899 -20.981875 0
M  V30 84 H 14.518526 7.517388 -20.357669 0
M  V30 85 H 16.118096 7.061047 -19.884832 0
M  V30 86 H 16.422546 3.345442 -23.028675 0
M  V30 87 H 16.264915 4.948313 -23.636752 0
M  V30 88 H 17.173326 5.207604 -21.075288 0
M  V30 END ATOM
M  V30 BEGIN BOND
M  V30 1 1 5 2
M  V30 2 1 6 4
M  V30 3 1 12 4
M  V30 4 1 13 2
M  V30 5 1 17 9
M  V30 6 1 18 7
M  V30 7 1 19 1
M  V30 8 2 19 10
M  V30 9 1 20 4
M  V30 10 1 21 20
M  V30 11 2 22 19
M  V30 12 1 23 4
M  V30 13 1 25 5
M  V30 14 1 25 14
M  V30 15 1 25 16
M  V30 16 1 26 8
M  V30 17 1 28 20
M  V30 18 1 29 21
M  V30 19 1 29 24
M  V30 20 1 9 30 CFG=3
M  V30 21 1 30 14
M  V30 22 1 31 1
M  V30 23 1 32 1
M  V30 24 1 32 5
M  V30 25 1 32 26
M  V30 26 1 33 14
M  V30 27 1 33 27
M  V30 28 1 34 18
M  V30 29 1 35 8
M  V30 30 1 35 18
M  V30 31 1 35 19
M  V30 32 1 36 31
M  V30 33 1 37 9
M  V30 34 1 38 11
M  V30 35 1 39 28
M  V30 36 1 39 37
M  V30 37 1 39 38
M  V30 38 1 40 6
M  V30 39 1 40 15 CFG=3
M  V30 40 1 40 21
M  V30 41 1 40 29
M  V30 42 1 41 9
M  V30 43 1 41 11
M  V30 44 1 42 18
M  V30 45 1 43 3
M  V30 46 1 43 38
M  V30 47 1 1 44 CFG=1
M  V30 48 1 45 2
M  V30 49 1 46 2
M  V30 50 1 47 3
M  V30 51 1 48 3
M  V30 52 1 49 3
M  V30 53 1 5 50 CFG=1
M  V30 54 1 51 6
M  V30 55 1 52 6
M  V30 56 1 53 8
M  V30 57 1 54 8
M  V30 58 1 55 11
M  V30 59 1 56 11
M  V30 60 1 57 13
M  V30 61 1 14 58 CFG=3
M  V30 62 1 59 16
M  V30 63 1 60 17
M  V30 64 1 61 17
M  V30 65 1 62 17
M  V30 66 1 20 63 CFG=1
M  V30 67 1 64 24
M  V30 68 1 65 24
M  V30 69 1 66 24
M  V30 70 1 25 67 CFG=3
M  V30 71 1 68 26
M  V30 72 1 69 26
M  V30 73 1 70 27
M  V30 74 1 71 28
M  V30 75 1 72 28
M  V30 76 1 29 73 CFG=3
M  V30 77 1 74 31
M  V30 78 1 75 31
M  V30 79 1 32 76 CFG=3
M  V30 80 1 77 33
M  V30 81 1 78 33
M  V30 82 1 35 79 CFG=3
M  V30 83 1 80 36
M  V30 84 1 81 37
M  V30 85 1 82 37
M  V30 86 1 39 83 CFG=3
M  V30 87 1 84 41
M  V30 88 1 85 41
M  V30 89 1 86 43
M  V30 90 1 87 43
M  V30 91 1 38 88 CFG=1
M  V30 END BOND
M  V30 END CTAB
M  END
>  <i_epik_Tot_Q>  (1) 
1

>  <i_epik_Tot_abs_Q>  (1) 
1

>  <i_i_glide_confnum>  (1) 
44

>  <i_i_glide_lignum>  (1) 
90

>  <i_i_glide_posenum>  (1) 
289

>  <i_i_glide_rotatable_bonds>  (1) 
16

>  <i_lp_mmshare_version>  (1) 
72125

>  <i_m_source_file_index>  (1) 
57

>  <i_f3d_flags>  (1) 
0

>  <num_sample>  (1) 
100

>  <b_lp_Chiralities_Consistent>  (1) 
1

>  <r_epik_Charging_Adjusted_Penalty>  (1) 
0.01878207797614901

>  <r_epik_Ionization_Penalty>  (1) 
0.019451196131951093

>  <r_epik_Ionization_Penalty_Charging>  (1) 
0.01878207797614901

>  <r_epik_Ionization_Penalty_Neutral>  (1) 
0.0006691181558020811

>  <r_epik_State_Penalty>  (1) 
-0

>  <r_glide_ring_energy>  (1) 
0

>  <r_i_docking_score>  (1) 
-3.6369385129809486

>  <r_i_glide_ecoul>  (1) 
-3.0835338913791221

>  <r_i_glide_eff_state_penalty>  (1) 
-0

>  <r_i_glide_einternal>  (1) 
12.001111311425944

>  <r_i_glide_emodel>  (1) 
-25.460197999163348

>  <r_i_glide_emodel_strain>  (1) 
1.0907093874248233

>  <r_i_glide_energy>  (1) 
-26.9837774884199

>  <r_i_glide_erotb>  (1) 
0.34042408851888512

>  <r_i_glide_esite>  (1) 
0

>  <r_i_glide_evdw>  (1) 
-23.900243597040777

>  <r_i_glide_gscore>  (1) 
-3.6369385129809486

>  <r_i_glide_gscore_strain>  (1) 
0

>  <r_i_glide_hbond>  (1) 
-0.017582481340180943

>  <r_i_glide_ligand_efficiency>  (1) 
-0.084579965418161596

>  <r_i_glide_ligand_efficiency_ln>  (1) 
-0.76387012194532755

>  <r_i_glide_ligand_efficiency_sa>  (1) 
-0.29631728679356362

>  <r_i_glide_lipo>  (1) 
-1.3436208180719109

>  <r_i_glide_metal>  (1) 
-0

>  <r_i_glide_rewards>  (1) 
-0.95861703852883395

>  <r_lp_Energy>  (1) 
36.609592999999997

>  <r_lp_tautomer_probability>  (1) 
1

>  <s_epik_cmdline>  (1) 
J2VwaWtfcHl0aG9uJywgJy1waHQnLCAnMS4wJywgJy1waCcsICc3LjQnLCAnLXRuJywgJzgnLCAnLW1hJywgJzUwMCcsICctaW1hZScsICc8aW5maWxlLm1hZT4nLCAnLW9tYWUnLCAnPG91dGZpbGUubWFlPic=

>  <s_epik_input>  (1) 
RkMoRikoRilbQ0BASF0xW0NIMl1bQ0gyXVtDQEBIXShbQ0BASF0oUzEoPU8pPU8pW0NIMl1bT0hdKVtDQEBIXShbQ0gyXVtPSF0pW0NAQEhdKFtPSF0pW0NAQEhdKFtDSDJdW09IXSlPW0NAQF0yKFtDSDNdKVtDSDJdW0NAQEhdKE4oW0NIMl1bQ0gyXTIpW0NIMl1bQ0gzXSlbQ0gyXVtDQEhdKEMoRikoRilbQ0gyXTMpTihbQ0BAXTM0RilbQ0BIXTRbQ0gzXQ==

>  <s_glide_docking_method>  (1) 
confgen

>  <s_i_glide_gridfile>  (1) 
gpcr_drd2_6luq_protein_autoprepared_prepared

>  <s_lp_Force_Field>  (1) 
S-OPLS

>  <s_lp_Variant>  (1) 
DiffSBDD_56-2

>  <s_m_source_file>  (1) 
generated_generic_title2_ligand_DiffSBDD_2026-06-23_prepared.sdf

>  <GenAI_Model>  (1) 
DiffSBDD

>  <Protein>  (1) 
generic_title2

$$$$
DiffSBDD_90
     RDKit          3D

  0  0  0  0  0  0  0  0  0  0999 V3000
M  V30 BEGIN CTAB
M  V30 COUNTS 80 84 0 0 1
M  V30 BEGIN ATOM
M  V30 1 C 7.340693 7.609538 -13.197501 0
M  V30 2 C 8.403364 6.534049 -12.994322 0 CFG=1
M  V30 3 C 10.041281 7.901851 -10.076747 0
M  V30 4 C 6.085533 5.551297 -18.075319 0 CFG=2
M  V30 5 C 10.743855 6.928195 -11.894780 0
M  V30 6 C 10.168436 8.603437 -8.832699 0 CFG=2
M  V30 7 C 6.605072 4.550698 -15.118566 0 CFG=2
M  V30 8 O 6.575360 7.398018 -15.382970 0
M  V30 9 C 6.317139 6.923905 -14.092788 0 CFG=1
M  V30 10 C 4.951262 5.994588 -20.367026 0
M  V30 11 O 8.513271 3.438654 -21.022348 0
M  V30 12 C 9.364880 6.961082 -11.953841 0
M  V30 13 C 7.090633 4.551044 -11.694318 0 CFG=2
M  V30 14 O 6.575091 3.295774 -19.904676 0 CHG=-1
M  V30 15 O 5.300614 6.403517 -17.458236 0 CHG=-1
M  V30 16 C 7.702305 4.703750 -16.259550 0 CFG=2
M  V30 17 N 7.355957 5.685526 -17.327417 0 CHG=1
M  V30 18 N 6.607197 5.483503 -13.979108 0
M  V30 19 C 8.297555 7.529310 -21.190092 0
M  V30 20 C 8.304820 3.436093 -16.934816 0
M  V30 21 O 7.669890 4.884938 -10.452793 0
M  V30 22 O 7.361520 2.523806 -17.458146 0
M  V30 23 O 7.500261 1.555074 -12.905117 0
M  V30 24 C 8.098673 3.884643 -12.611179 0 CFG=1
M  V30 25 C 7.518337 3.918310 -20.436083 0
M  V30 26 C 6.538103 3.131065 -14.479050 0
M  V30 27 N 11.073993 7.534980 -10.715216 0
M  V30 28 O 7.281141 8.223709 -21.253977 0
M  V30 29 C 11.751305 8.416762 -8.737582 0
M  V30 30 N 8.975414 7.568094 -10.785042 0 CHG=1
M  V30 31 C 6.258243 6.059110 -19.549617 0 CFG=2
M  V30 32 O 10.139082 6.173869 -7.287109 0
M  V30 33 O 9.375424 8.303555 -7.685694 0
M  V30 34 C 9.031271 6.989202 -7.405465 0
M  V30 35 C 9.664592 8.152109 -21.441074 0
M  V30 36 C 7.460842 5.442800 -20.358068 0
M  V30 37 C 7.728911 2.774072 -13.579747 0 CFG=2
M  V30 38 C 10.090734 5.079159 -8.175241 0
M  V30 39 N 8.363827 6.170984 -20.920332 0
M  V30 40 C 12.329544 7.823225 -10.113538 0
M  V30 41 C 7.592836 5.279482 -12.929686 0 CFG=1
M  V30 42 H 6.849571 7.857358 -12.254310 0
M  V30 43 H 7.775417 8.525841 -13.600680 0
M  V30 44 H 8.975368 6.390230 -13.902218 0
M  V30 45 H 5.807317 4.509298 -18.086199 0
M  V30 46 H 11.481857 6.553651 -12.590201 0
M  V30 47 H 9.929213 9.590207 -9.182724 0
M  V30 48 H 5.658829 4.790209 -15.585047 0
M  V30 49 H 5.882304 7.101637 -15.996696 0
M  V30 50 H 5.292742 7.158740 -13.806813 0
M  V30 51 H 5.096323 6.382408 -21.376658 0
M  V30 52 H 4.570560 4.977598 -20.449283 0
M  V30 53 H 4.176703 6.599256 -19.895709 0
M  V30 54 H 6.075224 4.162174 -11.641201 0
M  V30 55 H 8.564400 5.162113 -15.777059 0
M  V30 56 H 7.279572 6.588053 -16.874709 0
M  V30 57 H 8.939752 2.888636 -16.245240 0
M  V30 58 H 8.978829 3.726026 -17.743487 0
M  V30 59 H 7.063996 5.443152 -9.983357 0
M  V30 60 H 7.085792 2.790658 -18.340542 0
M  V30 61 H 8.277244 1.327386 -12.411321 0
M  V30 62 H 9.112787 3.804872 -12.220562 0
M  V30 63 H 5.648966 3.095736 -13.851351 0
M  V30 64 H 6.396826 2.346347 -15.217993 0
M  V30 65 H 12.228809 9.352824 -8.463607 0
M  V30 66 H 11.988823 7.710443 -7.942153 0
M  V30 67 H 6.457214 7.116399 -19.393637 0
M  V30 68 H 8.524386 6.985942 -6.439692 0
M  V30 69 H 8.314578 6.615453 -8.134153 0
M  V30 70 H 9.907067 8.114502 -22.504038 0
M  V30 71 H 9.670715 9.190320 -21.125365 0
M  V30 72 H 10.446263 7.632104 -20.885810 0
M  V30 73 H 8.575402 2.592800 -14.214603 0
M  V30 74 H 10.975422 4.488826 -7.985079 0
M  V30 75 H 9.220519 4.447027 -7.990660 0
M  V30 76 H 10.099272 5.371376 -9.223720 0
M  V30 77 H 12.882542 6.906757 -9.985024 0
M  V30 78 H 12.875898 8.550638 -10.716072 0
M  V30 79 H 8.002257 7.744472 -10.490559 0
M  V30 80 H 8.116297 5.722368 -17.988752 0
M  V30 END ATOM
M  V30 BEGIN BOND
M  V30 1 1 2 1
M  V30 2 1 6 3
M  V30 3 1 9 1
M  V30 4 1 9 8
M  V30 5 1 12 2
M  V30 6 2 12 5
M  V30 7 1 15 4
M  V30 8 1 16 7
M  V30 9 1 17 4
M  V30 10 1 17 16
M  V30 11 1 18 7
M  V30 12 1 18 9
M  V30 13 1 20 16
M  V30 14 1 21 13
M  V30 15 1 22 20
M  V30 16 1 24 13
M  V30 17 2 25 11
M  V30 18 1 25 14
M  V30 19 1 26 7
M  V30 20 1 27 3
M  V30 21 1 27 5
M  V30 22 2 28 19
M  V30 23 1 29 6
M  V30 24 2 30 3
M  V30 25 1 30 12
M  V30 26 1 31 4
M  V30 27 1 31 10
M  V30 28 1 33 6
M  V30 29 1 34 32
M  V30 30 1 34 33
M  V30 31 1 35 19
M  V30 32 1 36 25
M  V30 33 1 36 31
M  V30 34 1 37 23
M  V30 35 1 37 24
M  V30 36 1 37 26
M  V30 37 1 38 32
M  V30 38 1 39 19
M  V30 39 2 39 36
M  V30 40 1 40 27
M  V30 41 1 40 29
M  V30 42 1 41 2
M  V30 43 1 41 13
M  V30 44 1 41 18 CFG=3
M  V30 45 1 41 24
M  V30 46 1 42 1
M  V30 47 1 43 1
M  V30 48 1 2 44 CFG=3
M  V30 49 1 4 45 CFG=3
M  V30 50 1 46 5
M  V30 51 1 6 47 CFG=3
M  V30 52 1 7 48 CFG=3
M  V30 53 1 49 8
M  V30 54 1 9 50 CFG=1
M  V30 55 1 51 10
M  V30 56 1 52 10
M  V30 57 1 53 10
M  V30 58 1 13 54 CFG=1
M  V30 59 1 16 55 CFG=1
M  V30 60 1 56 17
M  V30 61 1 57 20
M  V30 62 1 58 20
M  V30 63 1 59 21
M  V30 64 1 60 22
M  V30 65 1 61 23
M  V30 66 1 24 62 CFG=1
M  V30 67 1 63 26
M  V30 68 1 64 26
M  V30 69 1 65 29
M  V30 70 1 66 29
M  V30 71 1 31 67 CFG=1
M  V30 72 1 68 34
M  V30 73 1 69 34
M  V30 74 1 70 35
M  V30 75 1 71 35
M  V30 76 1 72 35
M  V30 77 1 37 73 CFG=3
M  V30 78 1 74 38
M  V30 79 1 75 38
M  V30 80 1 76 38
M  V30 81 1 77 40
M  V30 82 1 78 40
M  V30 83 1 79 30
M  V30 84 1 80 17
M  V30 END BOND
M  V30 END CTAB
M  END
>  <i_epik_Tot_Q>  (1) 
0

>  <i_epik_Tot_abs_Q>  (1) 
4

>  <i_i_glide_confnum>  (1) 
2173

>  <i_i_glide_lignum>  (1) 
170

>  <i_i_glide_posenum>  (1) 
64

>  <i_i_glide_rotatable_bonds>  (1) 
16

>  <i_lp_mmshare_version>  (1) 
72125

>  <i_m_source_file_index>  (1) 
91

>  <i_f3d_flags>  (1) 
0

>  <num_sample>  (1) 
100

>  <b_lp_Chiralities_Consistent>  (1) 
1

>  <r_epik_Charging_Adjusted_Penalty>  (1) 
1.4758035429533554

>  <r_epik_Ionization_Penalty>  (1) 
0.33648449588267881

>  <r_epik_Ionization_Penalty_Charging>  (1) 
0.24231300703988756

>  <r_epik_Ionization_Penalty_Neutral>  (1) 
0.094171488842791265

>  <r_epik_State_Penalty>  (1) 
1.2334905359134678

>  <r_glide_ring_energy>  (1) 
0

>  <r_i_docking_score>  (1) 
-3.6327938025761508

>  <r_i_glide_ecoul>  (1) 
-10.124037522040288

>  <r_i_glide_eff_state_penalty>  (1) 
1.2334905359134678

>  <r_i_glide_einternal>  (1) 
28.045758057587761

>  <r_i_glide_emodel>  (1) 
-31.302873359314233

>  <r_i_glide_emodel_strain>  (1) 
3.9982958739841195

>  <r_i_glide_energy>  (1) 
-35.573099187273932

>  <r_i_glide_erotb>  (1) 
0.57888693115673628

>  <r_i_glide_esite>  (1) 
-0.27295480411213519

>  <r_i_glide_evdw>  (1) 
-25.449061665233646

>  <r_i_glide_gscore>  (1) 
-4.8662843384896188

>  <r_i_glide_gscore_strain>  (1) 
0

>  <r_i_glide_hbond>  (1) 
-0.27827580997167506

>  <r_i_glide_ligand_efficiency>  (1) 
-0.088604726892101235

>  <r_i_glide_ligand_efficiency_ln>  (1) 
-0.77070929460004445

>  <r_i_glide_ligand_efficiency_sa>  (1) 
-0.30552834684874686

>  <r_i_glide_lipo>  (1) 
-1.5363170144657983

>  <r_i_glide_metal>  (1) 
-0

>  <r_i_glide_rewards>  (1) 
-0.56656492952902004

>  <r_lp_Energy>  (1) 
63.663981999999997

>  <s_epik_Chemistry_Notes>  (1) 
This compound has an imine and may undergo hydrolysis. This compound contains an acetal/aminal-like group ( X-CH(R)-Y where X, Y are N, S, or O) that may be acid/base labile, releasing an aldehyde.

>  <s_epik_cmdline>  (1) 
J2VwaWtfcHl0aG9uJywgJy1waHQnLCAnMS4wJywgJy1waCcsICc3LjQnLCAnLXRuJywgJzgnLCAnLW1hJywgJzUwMCcsICctaW1hZScsICc8aW5maWxlLm1hZT4nLCAnLW9tYWUnLCAnPG91dGZpbGUubWFlPic=

>  <s_epik_input>  (1) 
W0NIM11PW0NIMl1PW0NASF0xW0NIMl1bQ0gyXW4oYzEyKVtjSF1jKG4yKVtDQEBIXTNbQ0gyXVtDQEBIXShbT0hdKU4oW0NAQF0zNDUpW0NASF0oW0NIMl1bQ0BIXShbT0hdKVtDQEBIXTVbQ0BIXTRbT0hdKVtDQEBIXShbQ0gyXVtPSF0pW05IXVtDQEBIXShbT0hdKVtDQEhdKFtDSDNdKUMoXEMoPU8pW09IXSk9Ti9DKD1PKVtDSDNd

>  <s_glide_docking_method>  (1) 
confgen

>  <s_i_glide_gridfile>  (1) 
gpcr_drd2_6luq_protein_autoprepared_prepared

>  <s_lp_Force_Field>  (1) 
S-OPLS

>  <s_lp_Variant>  (1) 
DiffSBDD_90-5

>  <s_m_source_file>  (1) 
generated_generic_title2_ligand_DiffSBDD_2026-06-23_prepared.sdf

>  <GenAI_Model>  (1) 
DiffSBDD

>  <Protein>  (1) 
generic_title2

$$$$
DiffSBDD_26
     RDKit          3D

  0  0  0  0  0  0  0  0  0  0999 V3000
M  V30 BEGIN CTAB
M  V30 COUNTS 56 58 0 0 1
M  V30 BEGIN ATOM
M  V30 1 C 6.863817 7.489417 -14.978371 0
M  V30 2 O 7.225794 1.873839 -15.133128 0
M  V30 3 C 6.257073 6.075206 -18.498606 0 CFG=1
M  V30 4 C 5.739380 4.099177 -10.902429 0
M  V30 5 C 4.593526 7.762023 -19.528456 0
M  V30 6 C 6.983605 5.061549 -15.142854 0
M  V30 7 C 5.611764 5.376638 -12.997415 0 CFG=2
M  V30 8 C 5.956075 5.590082 -10.635533 0
M  V30 9 C 7.323533 7.738014 -12.456761 0
M  V30 10 N 5.439659 6.267969 -11.827225 0 CFG=1 CHG=1
M  V30 11 N 5.775372 2.878334 -13.185026 0
M  V30 12 C 6.785306 4.636608 -18.564753 0
M  V30 13 C 6.941636 2.119339 -12.785111 0
M  V30 14 C 5.854091 7.658143 -12.031470 0
M  V30 15 C 5.198708 6.345718 -19.609111 0
M  V30 16 C 7.519375 6.912871 -13.728910 0 CFG=1
M  V30 17 C 6.909772 6.343884 -15.993701 0 CFG=1
M  V30 18 C 5.315248 4.011890 -12.384643 0 CFG=1
M  V30 19 O 7.986320 4.415632 -18.700880 0
M  V30 20 C 5.791307 6.423646 -17.060174 0
M  V30 21 O 8.207292 0.390188 -13.794118 0 CHG=-1
M  V30 22 C 7.009856 5.483665 -13.653952 0 CFG=2
M  V30 23 C 5.780859 6.134180 -21.022700 0
M  V30 24 C 7.505429 1.396669 -14.007753 0
M  V30 25 H 7.365861 8.399777 -15.293858 0
M  V30 26 H 5.824944 7.759919 -14.803361 0
M  V30 27 H 7.109600 6.718198 -18.718812 0
M  V30 28 H 4.975468 3.673696 -10.254680 0
M  V30 29 H 6.666147 3.590390 -10.677036 0
M  V30 30 H 5.374447 8.521506 -19.469366 0
M  V30 31 H 3.939093 7.878553 -18.664328 0
M  V30 32 H 3.985480 7.990368 -20.403333 0
M  V30 33 H 6.175437 4.377231 -15.374569 0
M  V30 34 H 7.903635 4.526064 -15.382971 0
M  V30 35 H 4.858434 5.628079 -13.744228 0
M  V30 36 H 5.424833 5.990223 -9.776416 0
M  V30 37 H 7.020346 5.776169 -10.489656 0
M  V30 38 H 7.970884 7.363648 -11.663609 0
M  V30 39 H 7.648143 8.767286 -12.615463 0
M  V30 40 H 5.929625 3.094395 -14.165824 0
M  V30 41 H 6.032243 3.852411 -18.484496 0
M  V30 42 H 7.729864 2.759899 -12.392533 0
M  V30 43 H 6.644213 1.391941 -12.028865 0
M  V30 44 H 5.180006 7.990196 -12.812299 0
M  V30 45 H 5.634191 8.294815 -11.185018 0
M  V30 46 H 4.379123 5.638302 -19.485076 0
M  V30 47 H 8.575407 6.790200 -13.900956 0
M  V30 48 H 7.851638 6.390125 -16.520676 0
M  V30 49 H 4.226012 3.990234 -12.399841 0
M  V30 50 H 5.446197 7.456055 -17.067769 0
M  V30 51 H 4.922540 5.832497 -16.768002 0
M  V30 52 H 7.730089 4.887104 -13.092195 0
M  V30 53 H 6.637135 6.787796 -21.194823 0
M  V30 54 H 5.041465 6.355008 -21.792162 0
M  V30 55 H 6.110050 5.108547 -21.190421 0
M  V30 56 H 4.443551 6.316788 -11.670554 0
M  V30 END ATOM
M  V30 BEGIN BOND
M  V30 1 1 8 4
M  V30 2 1 10 7
M  V30 3 1 10 8
M  V30 4 1 12 3
M  V30 5 1 13 11
M  V30 6 1 14 9
M  V30 7 1 14 10
M  V30 8 1 15 3
M  V30 9 1 15 5
M  V30 10 1 16 1
M  V30 11 1 16 9
M  V30 12 1 17 1
M  V30 13 1 17 6
M  V30 14 1 18 4
M  V30 15 1 18 7
M  V30 16 1 18 11
M  V30 17 2 19 12
M  V30 18 1 20 3
M  V30 19 1 20 17
M  V30 20 1 22 6
M  V30 21 1 22 7
M  V30 22 1 22 16
M  V30 23 1 23 15
M  V30 24 2 24 2
M  V30 25 1 24 13
M  V30 26 1 24 21
M  V30 27 1 25 1
M  V30 28 1 26 1
M  V30 29 1 3 27 CFG=3
M  V30 30 1 28 4
M  V30 31 1 29 4
M  V30 32 1 30 5
M  V30 33 1 31 5
M  V30 34 1 32 5
M  V30 35 1 33 6
M  V30 36 1 34 6
M  V30 37 1 7 35 CFG=3
M  V30 38 1 36 8
M  V30 39 1 37 8
M  V30 40 1 38 9
M  V30 41 1 39 9
M  V30 42 1 40 11
M  V30 43 1 41 12
M  V30 44 1 42 13
M  V30 45 1 43 13
M  V30 46 1 44 14
M  V30 47 1 45 14
M  V30 48 1 46 15
M  V30 49 1 16 47 CFG=3
M  V30 50 1 17 48 CFG=3
M  V30 51 1 18 49 CFG=1
M  V30 52 1 50 20
M  V30 53 1 51 20
M  V30 54 1 22 52 CFG=1
M  V30 55 1 53 23
M  V30 56 1 54 23
M  V30 57 1 55 23
M  V30 58 1 10 56 CFG=1
M  V30 END BOND
M  V30 END CTAB
M  END
>  <i_epik_Tot_Q>  (1) 
0

>  <i_epik_Tot_abs_Q>  (1) 
2

>  <i_i_glide_confnum>  (1) 
91

>  <i_i_glide_lignum>  (1) 
45

>  <i_i_glide_posenum>  (1) 
309

>  <i_i_glide_rotatable_bonds>  (1) 
7

>  <i_lp_mmshare_version>  (1) 
72125

>  <i_m_source_file_index>  (1) 
27

>  <i_f3d_flags>  (1) 
0

>  <num_sample>  (1) 
100

>  <b_lp_Chiralities_Consistent>  (1) 
1

>  <r_epik_Charging_Adjusted_Penalty>  (1) 
0.19178745009715187

>  <r_epik_Ionization_Penalty>  (1) 
0.029917907437945299

>  <r_epik_Ionization_Penalty_Charging>  (1) 
0.0050195782491265998

>  <r_epik_Ionization_Penalty_Neutral>  (1) 
0.024898329188818697

>  <r_epik_State_Penalty>  (1) 
0.18676787184802526

>  <r_glide_ring_energy>  (1) 
0

>  <r_i_docking_score>  (1) 
-3.6322626508103752

>  <r_i_glide_ecoul>  (1) 
-1.2701501905312695

>  <r_i_glide_eff_state_penalty>  (1) 
0.18676787184802526

>  <r_i_glide_einternal>  (1) 
18.456523034055287

>  <r_i_glide_emodel>  (1) 
-11.84245688682082

>  <r_i_glide_emodel_strain>  (1) 
1.5771776414460419

>  <r_i_glide_energy>  (1) 
-17.264807568826601

>  <r_i_glide_erotb>  (1) 
0.66727664270853937

>  <r_i_glide_esite>  (1) 
-0.059120411065951756

>  <r_i_glide_evdw>  (1) 
-15.994657378295333

>  <r_i_glide_gscore>  (1) 
-3.8190305226584007

>  <r_i_glide_gscore_strain>  (1) 
0

>  <r_i_glide_hbond>  (1) 
0

>  <r_i_glide_ligand_efficiency>  (1) 
-0.15134427711709897

>  <r_i_glide_ligand_efficiency_ln>  (1) 
-0.86936712601136668

>  <r_i_glide_ligand_efficiency_sa>  (1) 
-0.43655243728124266

>  <r_i_glide_lipo>  (1) 
-1.522423731042764

>  <r_i_glide_metal>  (1) 
-0

>  <r_i_glide_rewards>  (1) 
-1.9145076257637674

>  <r_lp_Energy>  (1) 
35.064892999999998

>  <r_lp_tautomer_probability>  (1) 
0.99990000499974985

>  <s_epik_cmdline>  (1) 
J2VwaWtfcHl0aG9uJywgJy1waHQnLCAnMS4wJywgJy1waCcsICc3LjQnLCAnLXRuJywgJzgnLCAnLW1hJywgJzUwMCcsICctaW1hZScsICc8aW5maWxlLm1hZT4nLCAnLW9tYWUnLCAnPG91dGZpbGUubWFlPic=

>  <s_epik_input>  (1) 
W0NIM11bQ0hdKFtDSDNdKVtDQEhdKFtDSF09TylbQ0gyXVtDQEBIXShbQ0gyXTEpW0NIMl1bQ0BIXTJbQ0BASF0xW0NIMl1bQ0gyXU4oW0NAQEhdMjMpW0NIMl1bQ0gyXVtDQEBIXTNbTkhdW0NIMl1DKD1PKVtPSF0=

>  <s_glide_docking_method>  (1) 
confgen

>  <s_i_glide_gridfile>  (1) 
gpcr_drd2_6luq_protein_autoprepared_prepared

>  <s_lp_Force_Field>  (1) 
S-OPLS

>  <s_lp_Variant>  (1) 
DiffSBDD_26-1

>  <s_m_source_file>  (1) 
generated_generic_title2_ligand_DiffSBDD_2026-06-23_prepared.sdf

>  <GenAI_Model>  (1) 
DiffSBDD

>  <Protein>  (1) 
generic_title2

$$$$
DiffSBDD_21
     RDKit          3D

  0  0  0  0  0  0  0  0  0  0999 V3000
M  V30 BEGIN CTAB
M  V30 COUNTS 75 79 0 0 1
M  V30 BEGIN ATOM
M  V30 1 F 10.375308 5.759687 -16.861120 0
M  V30 2 O 7.706406 3.335597 -14.367158 0
M  V30 3 O 9.643770 7.101941 -7.469005 0
M  V30 4 C 12.541378 8.846421 -8.355703 0 CFG=1
M  V30 5 C 11.131743 8.407120 -8.742971 0 CFG=2
M  V30 6 C 9.189432 4.910674 -13.449516 0 CFG=2
M  V30 7 C 5.842421 0.468511 -19.736831 0
M  V30 8 N 7.273073 2.350891 -18.402921 0
M  V30 9 C 11.775396 9.594489 -9.400134 0
M  V30 10 C 6.472112 -0.039907 -18.447792 0 CFG=1
M  V30 11 C 9.070657 5.202727 -14.934182 0 CFG=1
M  V30 12 C 7.323195 -1.313579 -18.659766 0 CFG=2
M  V30 13 C 8.734143 -0.827500 -19.030634 0 CFG=1
M  V30 14 C 10.457877 5.310146 -15.610216 0
M  V30 15 C 7.369164 1.035235 -17.774740 0 CFG=1
M  V30 16 O 8.760337 -0.425255 -20.396085 0
M  V30 17 C 9.981636 7.294742 -10.705482 0
M  V30 18 C 11.459998 8.277317 -6.358011 0 CFG=1
M  V30 19 C 8.509987 4.364101 -19.029918 0
M  V30 20 O 6.663564 -4.184824 -20.719366 0 CHG=-1
M  V30 21 C 10.022661 6.046305 -11.593620 0
M  V30 22 C 10.054366 -0.446006 -20.972963 0
M  V30 23 S 9.100227 0.498258 -17.873257 0
M  V30 24 C 8.226092 4.049069 -15.409632 0
M  V30 25 C 10.975405 8.590436 -4.962983 0
M  V30 26 C 8.017751 3.977736 -13.138336 0
M  V30 27 C 7.196948 -3.482105 -19.836116 0
M  V30 28 N 6.764511 -2.224332 -19.666415 0
M  V30 29 C 10.372079 8.317939 -7.440594 0 CFG=2
M  V30 30 O 9.148110 6.120262 -12.701362 0
M  V30 31 O 8.119112 -3.917745 -19.111498 0
M  V30 32 C 7.929802 3.476178 -17.948655 0
M  V30 33 C 12.518858 9.221445 -6.897236 0
M  V30 34 C 8.058077 3.774628 -16.679036 0
M  V30 35 C 10.244248 6.220191 -8.403826 0
M  V30 36 C 4.561920 0.829719 -19.850963 0
M  V30 37 C 10.884826 7.129508 -9.466308 0 CFG=2
M  V30 38 H 13.365864 8.210519 -8.672945 0
M  V30 39 H 10.108565 4.351233 -13.280964 0
M  V30 40 H 6.490732 0.537217 -20.596402 0
M  V30 41 H 7.254022 2.266700 -19.408573 0
M  V30 42 H 11.382033 10.577535 -9.185030 0
M  V30 43 H 12.175653 9.480802 -10.396278 0
M  V30 44 H 5.654571 -0.280442 -17.766692 0
M  V30 45 H 8.493931 6.113615 -15.092786 0
M  V30 46 H 7.381683 -1.838555 -17.703166 0
M  V30 47 H 9.458636 -1.609756 -18.857158 0
M  V30 48 H 11.110796 5.990251 -15.067334 0
M  V30 49 H 10.972046 4.354901 -15.652547 0
M  V30 50 H 7.104069 1.121392 -16.720003 0
M  V30 51 H 10.283367 8.158764 -11.295781 0
M  V30 52 H 8.964741 7.493387 -10.384720 0
M  V30 53 H 11.854769 7.262074 -6.348489 0
M  V30 54 H 8.200167 5.400457 -18.887496 0
M  V30 55 H 9.599263 4.323824 -19.003751 0
M  V30 56 H 8.190672 4.048906 -20.023235 0
M  V30 57 H 9.775403 5.156874 -11.010882 0
M  V30 58 H 11.032776 5.931245 -11.985054 0
M  V30 59 H 9.998151 -0.091525 -22.002688 0
M  V30 60 H 10.750143 0.194083 -20.429024 0
M  V30 61 H 10.451880 -1.461423 -20.990652 0
M  V30 62 H 10.575738 9.601267 -4.879288 0
M  V30 63 H 10.175614 7.876018 -4.785029 0
M  V30 64 H 11.756810 8.449734 -4.215518 0
M  V30 65 H 7.144563 4.543547 -12.810000 0
M  V30 66 H 8.270365 3.250093 -12.365880 0
M  V30 67 H 6.022603 -1.880091 -20.255098 0
M  V30 68 H 9.702707 9.170922 -7.321424 0
M  V30 69 H 12.165874 10.247667 -6.784997 0
M  V30 70 H 13.503619 9.190229 -6.433792 0
M  V30 71 H 9.505085 5.524657 -8.798845 0
M  V30 72 H 10.997455 5.630819 -7.883994 0
M  V30 73 H 3.888587 0.770803 -19.013208 0
M  V30 74 H 4.175336 1.190199 -20.785034 0
M  V30 75 H 11.863396 6.790229 -9.788229 0
M  V30 END ATOM
M  V30 BEGIN BOND
M  V30 1 1 5 4
M  V30 2 1 9 4
M  V30 3 1 5 9 CFG=3
M  V30 4 1 10 7
M  V30 5 1 11 6
M  V30 6 1 12 10
M  V30 7 1 13 12
M  V30 8 1 14 1
M  V30 9 1 14 11
M  V30 10 1 15 8
M  V30 11 1 15 10
M  V30 12 1 16 13
M  V30 13 1 21 17
M  V30 14 1 22 16
M  V30 15 1 23 13
M  V30 16 1 23 15
M  V30 17 1 24 2
M  V30 18 1 24 11
M  V30 19 1 25 18
M  V30 20 1 26 2
M  V30 21 1 26 6
M  V30 22 1 27 20
M  V30 23 1 28 12
M  V30 24 1 28 27
M  V30 25 1 29 3
M  V30 26 1 29 5
M  V30 27 1 29 18
M  V30 28 1 30 6
M  V30 29 1 30 21
M  V30 30 2 31 27
M  V30 31 1 32 8
M  V30 32 1 32 19
M  V30 33 1 33 4
M  V30 34 1 33 18
M  V30 35 2 34 24
M  V30 36 2 34 32
M  V30 37 1 35 3
M  V30 38 2 36 7
M  V30 39 1 37 5
M  V30 40 1 37 17
M  V30 41 1 37 35
M  V30 42 1 4 38 CFG=3
M  V30 43 1 6 39 CFG=3
M  V30 44 1 40 7
M  V30 45 1 41 8
M  V30 46 1 42 9
M  V30 47 1 43 9
M  V30 48 1 10 44 CFG=1
M  V30 49 1 11 45 CFG=1
M  V30 50 1 12 46 CFG=1
M  V30 51 1 13 47 CFG=3
M  V30 52 1 48 14
M  V30 53 1 49 14
M  V30 54 1 15 50 CFG=1
M  V30 55 1 51 17
M  V30 56 1 52 17
M  V30 57 1 18 53 CFG=1
M  V30 58 1 54 19
M  V30 59 1 55 19
M  V30 60 1 56 19
M  V30 61 1 57 21
M  V30 62 1 58 21
M  V30 63 1 59 22
M  V30 64 1 60 22
M  V30 65 1 61 22
M  V30 66 1 62 25
M  V30 67 1 63 25
M  V30 68 1 64 25
M  V30 69 1 65 26
M  V30 70 1 66 26
M  V30 71 1 67 28
M  V30 72 1 29 68 CFG=1
M  V30 73 1 69 33
M  V30 74 1 70 33
M  V30 75 1 71 35
M  V30 76 1 72 35
M  V30 77 1 73 36
M  V30 78 1 74 36
M  V30 79 1 37 75 CFG=3
M  V30 END BOND
M  V30 END CTAB
M  END
>  <i_epik_Tot_Q>  (1) 
-1

>  <i_epik_Tot_abs_Q>  (1) 
1

>  <i_i_glide_confnum>  (1) 
38

>  <i_i_glide_lignum>  (1) 
38

>  <i_i_glide_posenum>  (1) 
89

>  <i_i_glide_rotatable_bonds>  (1) 
11

>  <i_lp_mmshare_version>  (1) 
72125

>  <i_m_source_file_index>  (1) 
22

>  <i_f3d_flags>  (1) 
0

>  <num_sample>  (1) 
100

>  <b_lp_Chiralities_Consistent>  (1) 
1

>  <r_epik_Charging_Adjusted_Penalty>  (1) 
0.00061310518503501809

>  <r_epik_Ionization_Penalty>  (1) 
0.00061311684036178345

>  <r_epik_Ionization_Penalty_Charging>  (1) 
0.00061310518503501809

>  <r_epik_Ionization_Penalty_Neutral>  (1) 
1.1655326765339942e-08

>  <r_epik_State_Penalty>  (1) 
-0

>  <r_glide_ring_energy>  (1) 
0.25431791977597118

>  <r_i_docking_score>  (1) 
-3.6320586960532646

>  <r_i_glide_ecoul>  (1) 
-0.24250916096069552

>  <r_i_glide_eff_state_penalty>  (1) 
-0

>  <r_i_glide_einternal>  (1) 
2.1663042520178681

>  <r_i_glide_emodel>  (1) 
-31.849037094245865

>  <r_i_glide_emodel_strain>  (1) 
0.85714557575259676

>  <r_i_glide_energy>  (1) 
-27.656614671102666

>  <r_i_glide_erotb>  (1) 
0.57165655028623308

>  <r_i_glide_esite>  (1) 
0

>  <r_i_glide_evdw>  (1) 
-27.414105510141972

>  <r_i_glide_gscore>  (1) 
-3.6320586960532646

>  <r_i_glide_gscore_strain>  (1) 
0

>  <r_i_glide_hbond>  (1) 
0

>  <r_i_glide_ligand_efficiency>  (1) 
-0.098163748541980123

>  <r_i_glide_ligand_efficiency_ln>  (1) 
-0.78770838363730211

>  <r_i_glide_ligand_efficiency_sa>  (1) 
-0.3271033879310648

>  <r_i_glide_lipo>  (1) 
-1.8864604250853718

>  <r_i_glide_metal>  (1) 
-0

>  <r_i_glide_rewards>  (1) 
-0.91017317160292244

>  <r_lp_Energy>  (1) 
-4.7551119999999996

>  <r_lp_tautomer_probability>  (1) 
1

>  <s_epik_Chemistry_Notes>  (1) 
This compound contains an acetal/aminal-like group ( X-CH(R)-Y where X, Y are N, S, or O) that may be acid/base labile, releasing an aldehyde.

>  <s_epik_cmdline>  (1) 
J2VwaWtfcHl0aG9uJywgJy1waHQnLCAnMS4wJywgJy1waCcsICc3LjQnLCAnLXRuJywgJzgnLCAnLW1hJywgJzUwMCcsICctaW1hZScsICc8aW5maWxlLm1hZT4nLCAnLW9tYWUnLCAnPG91dGZpbGUubWFlPic=

>  <s_epik_input>  (1) 
W09IXUMoPU8pW05IXVtDQEhdKFtDQEBIXTFbQ0hdPVtDSDJdKVtDQEBIXShPW0NIM10pU1tDQEhdMVtOSF1DKFtDSDNdKT1DPUMoT1tDSDJdMilbQ0BIXShbQ0gyXUYpW0NASF0yT1tDSDJdW0NIMl1bQ0BASF0zW0NIMl1PW0NASF00W0NASF0oW0NIM10pW0NIMl1bQ0BASF0oW0NAQF0zNDUpW0NIMl01

>  <s_glide_docking_method>  (1) 
confgen

>  <s_i_glide_gridfile>  (1) 
gpcr_drd2_6luq_protein_autoprepared_prepared

>  <s_lp_Force_Field>  (1) 
S-OPLS

>  <s_lp_Variant>  (1) 
DiffSBDD_21-1

>  <s_m_source_file>  (1) 
generated_generic_title2_ligand_DiffSBDD_2026-06-23_prepared.sdf

>  <GenAI_Model>  (1) 
DiffSBDD

>  <Protein>  (1) 
generic_title2

$$$$
DiffSBDD_77
     RDKit          3D

  0  0  0  0  0  0  0  0  0  0999 V3000
M  V30 BEGIN CTAB
M  V30 COUNTS 64 67 0 0 1
M  V30 BEGIN ATOM
M  V30 1 N 8.250573 8.209622 -11.985018 0
M  V30 2 C 9.776480 6.981951 -19.773943 0
M  V30 3 C 5.221404 7.197140 -18.753898 0
M  V30 4 C 7.593699 3.525924 -15.435508 0
M  V30 5 C 6.351547 5.914186 -15.288318 0
M  V30 6 C 4.366231 8.685362 -20.603454 0
M  V30 7 C 9.185552 5.696560 -10.311650 0
M  V30 8 N 8.445809 4.143942 -16.465124 0
M  V30 9 C 9.083785 4.694707 -18.821899 0 CFG=1
M  V30 10 C 8.029960 6.887905 -12.362197 0
M  V30 11 C 6.360116 7.249489 -22.790073 0
M  V30 12 C 9.723049 4.703410 -16.007007 0
M  V30 13 C 8.074614 4.142592 -17.777204 0
M  V30 14 N 7.353301 5.164672 -13.498550 0
M  V30 15 C 9.316869 3.605854 -19.878001 0 CFG=2
M  V30 16 C 6.666554 4.481835 -14.659082 0 CFG=2
M  V30 17 C 7.392968 6.487574 -13.477288 0
M  V30 18 C 7.988150 4.649137 -12.369764 0
M  V30 19 C 5.160287 7.410382 -20.274486 0
M  V30 20 C 8.593388 6.051622 -19.412793 0 CFG=2
M  V30 21 C 10.320414 3.718633 -20.993154 0
M  V30 22 C 6.780919 6.940467 -14.571810 0
M  V30 23 C 8.437360 5.732895 -11.618452 0
M  V30 24 O 6.986433 3.705703 -18.155729 0
M  V30 25 C 7.572919 5.863020 -20.571309 0 CFG=1
M  V30 26 S 6.820768 7.472832 -21.044235 0 CHG=1
M  V30 27 C 8.209802 5.095572 -21.748922 0
M  V30 28 C 8.839146 3.786500 -21.307503 0 CFG=2
M  V30 29 H 8.427521 8.392124 -11.003759 0
M  V30 30 H 7.736349 8.938621 -12.454100 0
M  V30 31 H 10.343452 6.632612 -20.631897 0
M  V30 32 H 9.448521 7.990227 -20.018777 0
M  V30 33 H 10.473980 7.068920 -18.941159 0
M  V30 34 H 4.219348 7.182349 -18.323499 0
M  V30 35 H 5.687541 6.248554 -18.496676 0
M  V30 36 H 5.775412 7.987460 -18.252689 0
M  V30 37 H 8.213979 2.975766 -14.728440 0
M  V30 38 H 6.975415 2.747040 -15.883773 0
M  V30 39 H 5.820498 6.007296 -16.221499 0
M  V30 40 H 3.385484 8.673853 -20.129309 0
M  V30 41 H 4.884798 9.577172 -20.250825 0
M  V30 42 H 4.200899 8.796127 -21.674562 0
M  V30 43 H 8.552771 6.034229 -9.492617 0
M  V30 44 H 9.522181 4.683907 -10.087940 0
M  V30 45 H 10.056129 6.350102 -10.360778 0
M  V30 46 H 10.067520 4.852366 -18.392175 0
M  V30 47 H 5.827866 8.125841 -23.156576 0
M  V30 48 H 7.248588 7.127928 -23.409923 0
M  V30 49 H 5.717843 6.378235 -22.919495 0
M  V30 50 H 9.853698 5.730030 -16.351045 0
M  V30 51 H 9.774352 4.743254 -14.918246 0
M  V30 52 H 10.565460 4.099119 -16.347529 0
M  V30 53 H 9.236824 2.594877 -19.478714 0
M  V30 54 H 5.766551 3.989847 -14.295910 0
M  V30 55 H 8.060893 3.583928 -12.206291 0
M  V30 56 H 4.632803 6.556577 -20.701039 0
M  V30 57 H 8.070133 6.576507 -18.612129 0
M  V30 58 H 10.916818 4.621895 -21.065973 0
M  V30 59 H 10.845830 2.808689 -21.277523 0
M  V30 60 H 6.673970 7.989375 -14.804242 0
M  V30 61 H 6.751238 5.235860 -20.229461 0
M  V30 62 H 8.961404 5.700104 -22.255642 0
M  V30 63 H 7.455963 4.847105 -22.495605 0
M  V30 64 H 8.410388 2.905198 -21.781500 0
M  V30 END ATOM
M  V30 BEGIN BOND
M  V30 1 1 8 4
M  V30 2 1 10 1
M  V30 3 1 12 8
M  V30 4 1 13 8
M  V30 5 1 13 9
M  V30 6 1 15 9
M  V30 7 1 16 4
M  V30 8 1 16 5
M  V30 9 1 16 14
M  V30 10 2 17 10
M  V30 11 1 17 14
M  V30 12 1 18 14
M  V30 13 1 19 3
M  V30 14 1 19 6
M  V30 15 1 20 2
M  V30 16 1 20 9
M  V30 17 1 21 15
M  V30 18 2 22 5
M  V30 19 1 22 17
M  V30 20 1 23 7
M  V30 21 1 23 10
M  V30 22 2 23 18
M  V30 23 2 24 13
M  V30 24 1 25 20
M  V30 25 1 26 11 CFG=3
M  V30 26 1 26 19
M  V30 27 1 26 25
M  V30 28 1 27 25
M  V30 29 1 28 15
M  V30 30 1 28 21
M  V30 31 1 28 27
M  V30 32 1 29 1
M  V30 33 1 30 1
M  V30 34 1 31 2
M  V30 35 1 32 2
M  V30 36 1 33 2
M  V30 37 1 34 3
M  V30 38 1 35 3
M  V30 39 1 36 3
M  V30 40 1 37 4
M  V30 41 1 38 4
M  V30 42 1 39 5
M  V30 43 1 40 6
M  V30 44 1 41 6
M  V30 45 1 42 6
M  V30 46 1 43 7
M  V30 47 1 44 7
M  V30 48 1 45 7
M  V30 49 1 9 46 CFG=1
M  V30 50 1 47 11
M  V30 51 1 48 11
M  V30 52 1 49 11
M  V30 53 1 50 12
M  V30 54 1 51 12
M  V30 55 1 52 12
M  V30 56 1 15 53 CFG=1
M  V30 57 1 16 54 CFG=1
M  V30 58 1 55 18
M  V30 59 1 56 19
M  V30 60 1 20 57 CFG=1
M  V30 61 1 58 21
M  V30 62 1 59 21
M  V30 63 1 60 22
M  V30 64 1 25 61 CFG=1
M  V30 65 1 62 27
M  V30 66 1 63 27
M  V30 67 1 28 64 CFG=3
M  V30 END BOND
M  V30 END CTAB
M  END
>  <i_epik_Tot_Q>  (1) 
1

>  <i_epik_Tot_abs_Q>  (1) 
1

>  <i_i_glide_confnum>  (1) 
81

>  <i_i_glide_lignum>  (1) 
128

>  <i_i_glide_posenum>  (1) 
133

>  <i_i_glide_rotatable_bonds>  (1) 
6

>  <i_lp_mmshare_version>  (1) 
72125

>  <i_m_source_file_index>  (1) 
78

>  <i_f3d_flags>  (1) 
0

>  <num_sample>  (1) 
100

>  <b_lp_Chiralities_Consistent>  (1) 
1

>  <r_epik_Charging_Adjusted_Penalty>  (1) 
0

>  <r_epik_Ionization_Penalty>  (1) 
0.00035710652682445374

>  <r_epik_Ionization_Penalty_Charging>  (1) 
0

>  <r_epik_Ionization_Penalty_Neutral>  (1) 
0.00035710652682445374

>  <r_epik_State_Penalty>  (1) 
-0

>  <r_glide_ring_energy>  (1) 
1.6098596985396372

>  <r_i_docking_score>  (1) 
-3.6276430118036918

>  <r_i_glide_ecoul>  (1) 
-0.7132596556839339

>  <r_i_glide_eff_state_penalty>  (1) 
-0

>  <r_i_glide_einternal>  (1) 
6.850608208748902

>  <r_i_glide_emodel>  (1) 
-30.307166371373835

>  <r_i_glide_emodel_strain>  (1) 
0.12406185819580173

>  <r_i_glide_energy>  (1) 
-27.413962319076397

>  <r_i_glide_erotb>  (1) 
0.60532363573914161

>  <r_i_glide_esite>  (1) 
-0.099955462748263502

>  <r_i_glide_evdw>  (1) 
-26.700702663392462

>  <r_i_glide_gscore>  (1) 
-3.6276430118036918

>  <r_i_glide_gscore_strain>  (1) 
0

>  <r_i_glide_hbond>  (1) 
-0.035199725868409949

>  <r_i_glide_ligand_efficiency>  (1) 
-0.12955867899298898

>  <r_i_glide_ligand_efficiency_ln>  (1) 
-0.83736651935136408

>  <r_i_glide_ligand_efficiency_sa>  (1) 
-0.39341645584088952

>  <r_i_glide_lipo>  (1) 
-1.7297949552036076

>  <r_i_glide_metal>  (1) 
-0

>  <r_i_glide_rewards>  (1) 
-0.92599242220033928

>  <r_lp_Energy>  (1) 
24.865627999999997

>  <r_lp_tautomer_probability>  (1) 
1

>  <s_epik_cmdline>  (1) 
J2VwaWtfcHl0aG9uJywgJy1waHQnLCAnMS4wJywgJy1waCcsICc3LjQnLCAnLXRuJywgJzgnLCAnLW1hJywgJzUwMCcsICctaW1hZScsICc8aW5maWxlLm1hZT4nLCAnLW9tYWUnLCAnPG91dGZpbGUubWFlPic=

>  <s_epik_input>  (1) 
W0NIM11jKFtjSF0xKWMoW05IMl0pYyhuMTIpW0NIXT1bQ0hdW0NASF0yW0NIMl1OKFtDSDNdKUMoPU8pW0NAQEhdM1tDQEBIXShbQ0gzXSlbQ0BASF0oW1MrXShbQ0gzXSlbQ0hdKFtDSDNdKVtDSDNdKVtDSDJdW0NASF0oW0NIXTM0KVtDSDJdNA==

>  <s_glide_docking_method>  (1) 
confgen

>  <s_i_glide_gridfile>  (1) 
gpcr_drd2_6luq_protein_autoprepared_prepared

>  <s_lp_Force_Field>  (1) 
S-OPLS

>  <s_lp_Variant>  (1) 
DiffSBDD_77-1

>  <s_m_source_file>  (1) 
generated_generic_title2_ligand_DiffSBDD_2026-06-23_prepared.sdf

>  <GenAI_Model>  (1) 
DiffSBDD

>  <Protein>  (1) 
generic_title2

$$$$
DiffSBDD_28
     RDKit          3D

  0  0  0  0  0  0  0  0  0  0999 V3000
M  V30 BEGIN CTAB
M  V30 COUNTS 61 65 0 0 1
M  V30 BEGIN ATOM
M  V30 1 C 8.721576 5.018536 -14.395413 0 CFG=1
M  V30 2 F 6.983076 2.744648 -14.930014 0
M  V30 3 C 7.523943 4.110446 -16.830696 0
M  V30 4 C 9.375398 4.388546 -9.842029 0
M  V30 5 C 8.886108 5.787013 -9.712715 0
M  V30 6 C 8.508048 3.037745 -18.796210 0
M  V30 7 C 10.737420 7.756929 -5.740530 0 CFG=2
M  V30 8 O 8.975317 8.790227 -6.773717 0
M  V30 9 C 11.406335 8.971942 -6.358981 0
M  V30 10 C 8.527269 1.804280 -18.118023 0
M  V30 11 C 9.375410 6.433708 -8.429821 0
M  V30 12 C 11.702786 7.348824 -8.896977 0
M  V30 13 C 9.906561 5.162978 -15.363035 0
M  V30 14 C 9.108548 5.269421 -12.942581 0 CFG=1
M  V30 15 Cl 9.153304 0.398905 -18.900018 0
M  V30 16 O 5.995960 7.417220 -14.608900 0
M  V30 17 C 7.712954 7.245046 -12.927849 0 CFG=1
M  V30 18 O 11.378282 6.511613 -5.822507 0
M  V30 19 C 8.025167 1.713725 -16.806942 0
M  V30 20 C 7.908789 4.621717 -9.551524 0
M  V30 21 C 6.994480 6.794054 -14.232814 0
M  V30 22 O 8.984658 6.528352 -10.943731 0
M  V30 23 O 6.763863 7.879980 -12.102439 0
M  V30 24 N 7.525230 5.709004 -14.921517 0
M  V30 25 C 7.515095 2.857184 -16.163990 0
M  V30 26 C 10.270900 7.704288 -8.493648 0
M  V30 27 C 9.827729 8.790209 -9.491249 0
M  V30 28 O 9.072146 5.949406 -7.336259 0
M  V30 29 C 10.246100 8.304669 -7.071585 0 CFG=1
M  V30 30 C 8.222442 6.097283 -12.080442 0 CFG=2
M  V30 31 C 6.975498 5.356367 -16.162355 0
M  V30 32 C 8.627170 3.924902 -13.316999 0
M  V30 33 C 8.000936 4.187153 -18.157927 0
M  V30 34 O 6.099228 6.008125 -16.737693 0
M  V30 35 H 9.638274 3.986633 -10.812164 0
M  V30 36 H 9.979365 3.990220 -9.029212 0
M  V30 37 H 8.882951 3.102998 -19.807547 0
M  V30 38 H 10.175535 7.881767 -4.823417 0
M  V30 39 H 8.342954 8.095890 -6.929738 0
M  V30 40 H 12.413459 8.841938 -6.746289 0
M  V30 41 H 11.211539 9.944221 -5.911521 0
M  V30 42 H 12.315318 8.237846 -9.050430 0
M  V30 43 H 12.175396 6.790237 -8.102400 0
M  V30 44 H 11.728074 6.790238 -9.826487 0
M  V30 45 H 10.829857 5.396969 -14.838069 0
M  V30 46 H 10.069656 4.246305 -15.928061 0
M  V30 47 H 9.746134 5.975469 -16.073050 0
M  V30 48 H 10.171985 5.372454 -12.730254 0
M  V30 49 H 8.509441 7.943552 -13.182875 0
M  V30 50 H 10.711630 5.870881 -6.039205 0
M  V30 51 H 8.019897 0.762463 -16.296586 0
M  V30 52 H 7.557941 4.389880 -8.548928 0
M  V30 53 H 7.217212 4.283392 -10.312120 0
M  V30 54 H 6.190717 8.389997 -12.654103 0
M  V30 55 H 10.507190 9.621079 -9.364300 0
M  V30 56 H 9.950907 8.519976 -10.535936 0
M  V30 57 H 8.816814 9.166992 -9.336721 0
M  V30 58 H 7.322700 5.549364 -11.828836 0
M  V30 59 H 9.375447 3.151811 -13.185030 0
M  V30 60 H 7.648589 3.650626 -12.927737 0
M  V30 61 H 7.989197 5.132909 -18.681858 0
M  V30 END ATOM
M  V30 BEGIN BOND
M  V30 1 1 5 4
M  V30 2 1 9 7
M  V30 3 1 10 6
M  V30 4 1 11 5
M  V30 5 1 1 13 CFG=3
M  V30 6 1 14 1
M  V30 7 1 15 10
M  V30 8 1 18 7
M  V30 9 2 19 10
M  V30 10 1 20 4
M  V30 11 1 20 5
M  V30 12 2 21 16
M  V30 13 1 21 17
M  V30 14 1 22 5
M  V30 15 1 23 17
M  V30 16 1 24 1
M  V30 17 1 24 21
M  V30 18 1 25 2
M  V30 19 2 25 3
M  V30 20 1 25 19
M  V30 21 1 26 11
M  V30 22 1 26 12
M  V30 23 1 27 26
M  V30 24 2 28 11
M  V30 25 1 29 7
M  V30 26 1 29 8 CFG=1
M  V30 27 1 29 9
M  V30 28 1 29 26
M  V30 29 1 30 14
M  V30 30 1 30 17
M  V30 31 1 30 22
M  V30 32 1 31 3
M  V30 33 1 31 24
M  V30 34 1 32 1
M  V30 35 1 32 14
M  V30 36 1 33 3
M  V30 37 2 33 6
M  V30 38 2 34 31
M  V30 39 1 35 4
M  V30 40 1 36 4
M  V30 41 1 37 6
M  V30 42 1 7 38 CFG=1
M  V30 43 1 39 8
M  V30 44 1 40 9
M  V30 45 1 41 9
M  V30 46 1 42 12
M  V30 47 1 43 12
M  V30 48 1 44 12
M  V30 49 1 45 13
M  V30 50 1 46 13
M  V30 51 1 47 13
M  V30 52 1 14 48 CFG=3
M  V30 53 1 17 49 CFG=3
M  V30 54 1 50 18
M  V30 55 1 51 19
M  V30 56 1 52 20
M  V30 57 1 53 20
M  V30 58 1 54 23
M  V30 59 1 55 27
M  V30 60 1 56 27
M  V30 61 1 57 27
M  V30 62 1 30 58 CFG=1
M  V30 63 1 59 32
M  V30 64 1 60 32
M  V30 65 1 61 33
M  V30 END BOND
M  V30 END CTAB
M  END
>  <i_epik_Tot_Q>  (1) 
0

>  <i_epik_Tot_abs_Q>  (1) 
0

>  <i_i_glide_confnum>  (1) 
175

>  <i_i_glide_lignum>  (1) 
49

>  <i_i_glide_posenum>  (1) 
103

>  <i_i_glide_rotatable_bonds>  (1) 
10

>  <i_lp_mmshare_version>  (1) 
72125

>  <i_m_source_file_index>  (1) 
29

>  <i_f3d_flags>  (1) 
0

>  <num_sample>  (1) 
100

>  <b_lp_Chiralities_Consistent>  (1) 
1

>  <r_epik_Charging_Adjusted_Penalty>  (1) 
0

>  <r_epik_Ionization_Penalty>  (1) 
0.00021297919892765405

>  <r_epik_Ionization_Penalty_Charging>  (1) 
0

>  <r_epik_Ionization_Penalty_Neutral>  (1) 
0.00021297919892765405

>  <r_epik_State_Penalty>  (1) 
-0

>  <r_glide_ring_energy>  (1) 
0

>  <r_i_docking_score>  (1) 
-3.6159951024448977

>  <r_i_glide_ecoul>  (1) 
-0.80353479612747436

>  <r_i_glide_eff_state_penalty>  (1) 
-0

>  <r_i_glide_einternal>  (1) 
10.154289309098154

>  <r_i_glide_emodel>  (1) 
-26.243383315730615

>  <r_i_glide_emodel_strain>  (1) 
3.8344986915992365

>  <r_i_glide_energy>  (1) 
-28.95959234560889

>  <r_i_glide_erotb>  (1) 
0.58028021172077726

>  <r_i_glide_esite>  (1) 
-0.093003195022090257

>  <r_i_glide_evdw>  (1) 
-28.156057549481414

>  <r_i_glide_gscore>  (1) 
-3.6159951024448977

>  <r_i_glide_gscore_strain>  (1) 
0

>  <r_i_glide_hbond>  (1) 
-0.057431864577573009

>  <r_i_glide_ligand_efficiency>  (1) 
-0.10635279713073229

>  <r_i_glide_ligand_efficiency_ln>  (1) 
-0.7988747433572001

>  <r_i_glide_ligand_efficiency_sa>  (1) 
-0.34454177668359043

>  <r_i_glide_lipo>  (1) 
-1.4626903284483048

>  <r_i_glide_metal>  (1) 
-0

>  <r_i_glide_rewards>  (1) 
-1.0548168292245148

>  <r_lp_Energy>  (1) 
67.434545999999997

>  <r_lp_tautomer_probability>  (1) 
1

>  <s_epik_cmdline>  (1) 
J2VwaWtfcHl0aG9uJywgJy1waHQnLCAnMS4wJywgJy1waCcsICc3LjQnLCAnLXRuJywgJzgnLCAnLW1hJywgJzUwMCcsICctaW1hZScsICc8aW5maWxlLm1hZT4nLCAnLW9tYWUnLCAnPG91dGZpbGUubWFlPic=

>  <s_epik_input>  (1) 
W0NIMl0xW0NASF0oW09IXSlbQ0BdMShbT0hdKUMoW0NIM10pKFtDSDNdKUMoPU8pQzIoW0NIMl1bQ0gyXTIpT1tDQEhdKFtDQEBIXShbQ0gyXTMpW0NAQF0zNFtDSDNdKVtDQEhdKFtPSF0pQyg9TylONEMoPU8pYzVjKEYpW2NIXWMoQ2wpW2NIXVtjSF01

>  <s_glide_docking_method>  (1) 
confgen

>  <s_i_glide_gridfile>  (1) 
gpcr_drd2_6luq_protein_autoprepared_prepared

>  <s_lp_Force_Field>  (1) 
S-OPLS

>  <s_lp_Variant>  (1) 
DiffSBDD_28-1

>  <s_m_source_file>  (1) 
generated_generic_title2_ligand_DiffSBDD_2026-06-23_prepared.sdf

>  <GenAI_Model>  (1) 
DiffSBDD

>  <Protein>  (1) 
generic_title2

$$$$
DiffSBDD_91
     RDKit          3D

  0  0  0  0  0  0  0  0  0  0999 V3000
M  V30 BEGIN CTAB
M  V30 COUNTS 54 54 0 0 1
M  V30 BEGIN ATOM
M  V30 1 O 11.775498 10.448375 -5.802832 0 CHG=-1
M  V30 2 C 5.812794 1.273407 -13.644206 0
M  V30 3 O 8.602155 3.111069 -12.447857 0
M  V30 4 F 5.312976 0.125050 -14.098923 0
M  V30 5 C 8.158159 0.882283 -14.582784 0
M  V30 6 C 7.635925 3.679893 -12.955517 0
M  V30 7 O 9.248390 6.071403 -11.419941 0
M  V30 8 C 11.553752 9.268846 -5.463099 0
M  V30 9 C 10.622947 8.539927 -6.421532 0 CFG=1
M  V30 10 C 10.186785 7.683896 -8.797649 0
M  V30 11 C 11.913023 8.470978 -4.491119 0
M  V30 12 C 7.200142 3.317242 -14.402852 0 CFG=2
M  V30 13 O 11.575662 6.245514 -3.864671 0
M  V30 14 N 8.907067 5.594471 -9.228250 0
M  V30 15 C 7.199039 4.919372 -10.877107 0
M  V30 16 C 12.840794 8.793248 -3.332723 0
M  V30 17 F 6.242164 1.099194 -12.393943 0
M  V30 18 C 12.087674 9.139521 -2.047213 0
M  V30 19 C 11.182417 8.367590 -7.848510 0
M  V30 20 C 6.915820 1.795589 -14.597520 0 CFG=2
M  V30 21 C 11.375539 7.197571 -4.609605 0
M  V30 22 O 10.570649 7.197500 -5.729020 0
M  V30 23 N 6.907348 4.617041 -12.284455 0
M  V30 24 C 5.780864 5.323080 -12.904830 0
M  V30 25 O 11.375413 8.014149 -1.584878 0
M  V30 26 C 10.059964 6.167097 -8.559592 0
M  V30 27 O 8.033356 4.930194 -8.340372 0
M  V30 28 O 8.172118 3.774710 -15.325348 0
M  V30 29 C 8.553107 5.574262 -10.532914 0
M  V30 30 H 4.975493 1.965159 -13.584296 0
M  V30 31 H 8.668874 0.885251 -13.621401 0
M  V30 32 H 7.884017 -0.152698 -14.790219 0
M  V30 33 H 8.870332 1.191317 -15.346892 0
M  V30 34 H 9.635931 9.000375 -6.428455 0
M  V30 35 H 10.500411 7.859004 -9.827272 0
M  V30 36 H 9.212462 8.163917 -8.698943 0
M  V30 37 H 6.283328 3.811931 -14.711836 0
M  V30 38 H 7.083008 3.989763 -10.333238 0
M  V30 39 H 6.434052 5.571347 -10.454755 0
M  V30 40 H 13.484083 7.935057 -3.149314 0
M  V30 41 H 13.472159 9.630822 -3.623215 0
M  V30 42 H 12.772238 9.433290 -1.254591 0
M  V30 43 H 11.410545 9.975076 -2.226160 0
M  V30 44 H 12.121363 7.812595 -7.816165 0
M  V30 45 H 11.422766 9.349030 -8.259738 0
M  V30 46 H 6.505236 1.705592 -15.603282 0
M  V30 47 H 6.092398 5.847955 -13.808443 0
M  V30 48 H 4.969793 4.635589 -13.140690 0
M  V30 49 H 5.369297 6.085026 -12.242948 0
M  V30 50 H 10.763958 8.317049 -0.924971 0
M  V30 51 H 9.918826 5.954666 -7.511236 0
M  V30 52 H 10.975366 5.644711 -8.785872 0
M  V30 53 H 8.272975 5.280711 -7.496826 0
M  V30 54 H 7.906776 3.532035 -16.198651 0
M  V30 END ATOM
M  V30 BEGIN BOND
M  V30 1 1 4 2
M  V30 2 2 6 3
M  V30 3 1 8 1
M  V30 4 1 9 8
M  V30 5 2 11 8
M  V30 6 1 12 6
M  V30 7 1 16 11
M  V30 8 1 17 2
M  V30 9 1 18 16
M  V30 10 1 19 9
M  V30 11 1 19 10
M  V30 12 1 20 2
M  V30 13 1 20 5
M  V30 14 1 20 12
M  V30 15 1 21 11
M  V30 16 2 21 13
M  V30 17 1 22 9
M  V30 18 1 22 21
M  V30 19 1 23 6
M  V30 20 1 23 15
M  V30 21 1 24 23
M  V30 22 1 25 18
M  V30 23 1 26 10
M  V30 24 1 26 14
M  V30 25 1 27 14
M  V30 26 1 28 12
M  V30 27 2 29 7
M  V30 28 1 29 14
M  V30 29 1 29 15
M  V30 30 1 30 2
M  V30 31 1 31 5
M  V30 32 1 32 5
M  V30 33 1 33 5
M  V30 34 1 9 34 CFG=3
M  V30 35 1 35 10
M  V30 36 1 36 10
M  V30 37 1 12 37 CFG=3
M  V30 38 1 38 15
M  V30 39 1 39 15
M  V30 40 1 40 16
M  V30 41 1 41 16
M  V30 42 1 42 18
M  V30 43 1 43 18
M  V30 44 1 44 19
M  V30 45 1 45 19
M  V30 46 1 20 46 CFG=3
M  V30 47 1 47 24
M  V30 48 1 48 24
M  V30 49 1 49 24
M  V30 50 1 50 25
M  V30 51 1 51 26
M  V30 52 1 52 26
M  V30 53 1 53 27
M  V30 54 1 54 28
M  V30 END BOND
M  V30 END CTAB
M  END
>  <i_epik_Tot_Q>  (1) 
-1

>  <i_epik_Tot_abs_Q>  (1) 
1

>  <i_i_glide_confnum>  (1) 
2312

>  <i_i_glide_lignum>  (1) 
174

>  <i_i_glide_posenum>  (1) 
147

>  <i_i_glide_rotatable_bonds>  (1) 
16

>  <i_lp_mmshare_version>  (1) 
72125

>  <i_m_source_file_index>  (1) 
92

>  <i_f3d_flags>  (1) 
0

>  <num_sample>  (1) 
100

>  <b_lp_Chiralities_Consistent>  (1) 
1

>  <r_epik_Charging_Adjusted_Penalty>  (1) 
7.0624640006874639e-05

>  <r_epik_Ionization_Penalty>  (1) 
0.026986969757343576

>  <r_epik_Ionization_Penalty_Charging>  (1) 
7.0624640006874639e-05

>  <r_epik_Ionization_Penalty_Neutral>  (1) 
0.026916345117336701

>  <r_epik_State_Penalty>  (1) 
-0

>  <r_glide_ring_energy>  (1) 
0

>  <r_i_docking_score>  (1) 
-3.596490810212714

>  <r_i_glide_ecoul>  (1) 
-0.89827951043817766

>  <r_i_glide_eff_state_penalty>  (1) 
-0

>  <r_i_glide_einternal>  (1) 
7.7009301467231097

>  <r_i_glide_emodel>  (1) 
-38.293441572713803

>  <r_i_glide_emodel_strain>  (1) 
2.6629788063959836

>  <r_i_glide_energy>  (1) 
-36.183212232792499

>  <r_i_glide_erotb>  (1) 
1.3267024169305881

>  <r_i_glide_esite>  (1) 
-0.23804334906093746

>  <r_i_glide_evdw>  (1) 
-35.28493272235432

>  <r_i_glide_gscore>  (1) 
-3.596490810212714

>  <r_i_glide_gscore_strain>  (1) 
0

>  <r_i_glide_hbond>  (1) 
-0.32000000000000001

>  <r_i_glide_ligand_efficiency>  (1) 
-0.12401692449009359

>  <r_i_glide_ligand_efficiency_ln>  (1) 
-0.82350519640064146

>  <r_i_glide_ligand_efficiency_sa>  (1) 
-0.3810192837807258

>  <r_i_glide_lipo>  (1) 
-2.3307893106088389

>  <r_i_glide_metal>  (1) 
-0

>  <r_i_glide_rewards>  (1) 
-0.13537200479008216

>  <r_lp_Energy>  (1) 
6.6003359999999995

>  <r_lp_tautomer_probability>  (1) 
1

>  <s_epik_Chemistry_Notes>  (1) 
This compound has an ester and may undergo hydrolysis at high or low pH. This compound has a N-S or N-O group and may undergo hydrolysis at high or low pH.

>  <s_epik_cmdline>  (1) 
J2VwaWtfcHl0aG9uJywgJy1waHQnLCAnMS4wJywgJy1waCcsICc3LjQnLCAnLXRuJywgJzgnLCAnLW1hJywgJzUwMCcsICctaW1hZScsICc8aW5maWxlLm1hZT4nLCAnLW9tYWUnLCAnPG91dGZpbGUubWFlPic=

>  <s_epik_input>  (1) 
W09IXVtDSDJdW0NIMl1bQ0BASF0xQyg9TylPW0NAQEhdKEMxPU8pW0NIMl1bQ0gyXVtDSDJdTihbT0hdKUMoPU8pW0NIMl1OKFtDSDNdKUMoPU8pW0NAQEhdKFtPSF0pW0NASF0oW0NIXShGKUYpW0NIM10=

>  <s_glide_docking_method>  (1) 
confgen

>  <s_i_glide_gridfile>  (1) 
gpcr_drd2_6luq_protein_autoprepared_prepared

>  <s_lp_Force_Field>  (1) 
S-OPLS

>  <s_lp_Variant>  (1) 
DiffSBDD_91-1

>  <s_m_source_file>  (1) 
generated_generic_title2_ligand_DiffSBDD_2026-06-23_prepared.sdf

>  <GenAI_Model>  (1) 
DiffSBDD

>  <Protein>  (1) 
generic_title2

$$$$
DiffSBDD_86
     RDKit          3D

  0  0  0  0  0  0  0  0  0  0999 V3000
M  V30 BEGIN CTAB
M  V30 COUNTS 113 116 0 0 1
M  V30 BEGIN ATOM
M  V30 1 C 13.631506 -0.018618 -18.961569 0
M  V30 2 C 14.231355 1.337430 -19.329005 0 CFG=1
M  V30 3 C 11.495948 8.685277 -9.375747 0
M  V30 4 C 4.574901 7.792503 -19.311225 0
M  V30 5 C 6.964885 1.905364 -18.588489 0 CFG=2
M  V30 6 C 8.411345 4.662206 -12.726659 0
M  V30 7 O 8.592217 0.180772 -18.473173 0
M  V30 8 C 7.190270 0.340628 -16.519726 0 CFG=2
M  V30 9 O 8.575342 -2.899500 -17.585077 0
M  V30 10 C 7.872382 -0.604559 -17.535114 0 CFG=2
M  V30 11 C 5.899098 2.662249 -19.406505 0
M  V30 12 O 15.563524 1.163638 -19.772446 0
M  V30 13 N 9.919473 7.043399 -10.502074 0
M  V30 14 C 11.420492 3.231362 -17.583129 0
M  V30 15 C 11.134692 0.509365 -19.378454 0 CFG=1
M  V30 16 C 7.534168 3.570993 -14.785354 0 CFG=2
M  V30 17 O 11.420081 0.845505 -22.107956 0
M  V30 18 C 5.618900 7.547970 -16.923441 0
M  V30 19 C 7.893472 0.964040 -19.437381 0 CFG=1
M  V30 20 C 7.119291 -0.064750 -20.346577 0
M  V30 21 C 10.366740 1.853829 -19.564017 0 CFG=2
M  V30 22 O 9.000454 5.901389 -7.412559 0
M  V30 23 O 9.375616 3.920236 -12.557696 0
M  V30 24 N 8.690524 5.112922 -9.649915 0
M  V30 25 C 8.953319 1.817005 -20.200744 0
M  V30 26 C 6.278490 1.236271 -17.371288 0
M  V30 27 C 14.014843 8.225380 -9.585191 0
M  V30 28 O 7.424014 4.467800 -13.654467 0
M  V30 29 P 11.715026 1.452326 -20.779732 0 CFG=1
M  V30 30 C 6.472780 6.707823 -17.847047 0 CFG=2
M  V30 31 C 13.406662 2.132013 -20.361933 0
M  V30 32 C 6.630818 0.325418 -21.755731 0
M  V30 33 C 5.004638 6.920436 -18.151733 0 CFG=2
M  V30 34 F 7.775535 5.590284 -6.727477 0
M  V30 35 C 7.005285 5.378863 -17.382922 0
M  V30 36 C 8.620465 2.484921 -21.347536 0
M  V30 37 C 10.678520 3.220141 -18.923243 0
M  V30 38 C 8.975418 5.991705 -10.563960 0
M  V30 39 C 12.225339 0.138795 -18.371129 0
M  V30 40 C 7.697324 2.049766 -14.431890 0 CFG=2
M  V30 41 C 8.214728 5.948101 -11.895281 0
M  V30 42 C 10.672156 7.396470 -9.293480 0
M  V30 43 C 8.902568 -1.636087 -17.039409 0
M  V30 44 C 8.175756 1.054125 -15.542820 0
M  V30 45 O 6.468821 1.567034 -13.925968 0
M  V30 46 C 8.146203 5.523841 -16.366744 0
M  V30 47 C 8.582801 4.184822 -15.752925 0
M  V30 48 C 12.716199 8.611906 -10.310761 0
M  V30 49 C 9.359152 4.942553 -8.383116 0
M  V30 50 H 14.270334 -0.500612 -18.219022 0
M  V30 51 H 13.612531 -0.687691 -19.823773 0
M  V30 52 H 14.300058 1.928769 -18.416151 0
M  V30 53 H 10.844760 9.525327 -9.600896 0
M  V30 54 H 11.846206 8.913223 -8.369185 0
M  V30 55 H 5.268459 8.622893 -19.449608 0
M  V30 56 H 4.544784 7.206481 -20.229617 0
M  V30 57 H 3.582636 8.202436 -19.120812 0
M  V30 58 H 7.625887 2.651710 -18.164642 0
M  V30 59 H 6.538460 -0.277260 -15.899955 0
M  V30 60 H 7.923727 -3.280253 -17.009535 0
M  V30 61 H 7.075842 -1.165217 -18.021289 0
M  V30 62 H 5.156256 1.980331 -19.820517 0
M  V30 63 H 5.356445 3.372903 -18.785086 0
M  V30 64 H 6.332783 3.231382 -20.226178 0
M  V30 65 H 15.565500 0.597818 -20.530276 0
M  V30 66 H 10.053493 7.674104 -11.277078 0
M  V30 67 H 12.474877 2.992157 -17.689819 0
M  V30 68 H 10.969608 2.537930 -16.875895 0
M  V30 69 H 11.376291 4.222399 -17.131544 0
M  V30 70 H 10.611446 -0.383420 -19.717435 0
M  V30 71 H 6.574821 3.632351 -15.289822 0
M  V30 72 H 5.352072 7.119011 -15.960114 0
M  V30 73 H 5.775086 8.623457 -16.918440 0
M  V30 74 H 7.747164 -0.948433 -20.471179 0
M  V30 75 H 6.231456 -0.411969 -19.819358 0
M  V30 76 H 5.835088 1.990046 -16.736778 0
M  V30 77 H 5.443508 0.632139 -17.728944 0
M  V30 78 H 14.878804 8.390117 -10.230229 0
M  V30 79 H 14.161807 8.824763 -8.690917 0
M  V30 80 H 14.029233 7.190385 -9.267930 0
M  V30 81 H 7.170689 7.205733 -18.510859 0
M  V30 82 H 13.316375 3.169511 -20.044785 0
M  V30 83 H 13.944003 2.170088 -21.310511 0
M  V30 84 H 5.972300 -0.448193 -22.152831 0
M  V30 85 H 6.069056 1.257514 -21.767179 0
M  V30 86 H 7.460292 0.413836 -22.456362 0
M  V30 87 H 4.342618 6.076376 -17.966773 0
M  V30 88 H 7.353935 4.836946 -18.260008 0
M  V30 89 H 6.183620 4.811546 -16.960501 0
M  V30 90 H 9.631629 2.809677 -21.320374 0
M  V30 91 H 8.708122 3.109246 -22.224519 0
M  V30 92 H 11.191697 3.859376 -19.640708 0
M  V30 93 H 9.728211 3.726863 -18.753154 0
M  V30 94 H 12.237420 0.816242 -17.525951 0
M  V30 95 H 11.943622 -0.810037 -17.927972 0
M  V30 96 H 8.422843 1.951092 -13.626331 0
M  V30 97 H 8.496579 6.801192 -12.511280 0
M  V30 98 H 7.150702 6.062715 -11.683727 0
M  V30 99 H 9.956846 7.587338 -8.499392 0
M  V30 100 H 11.346006 6.598334 -8.996613 0
M  V30 101 H 8.975353 -1.697363 -15.958920 0
M  V30 102 H 9.904656 -1.378306 -17.369787 0
M  V30 103 H 8.575479 0.227610 -14.962530 0
M  V30 104 H 9.022340 1.449791 -16.094726 0
M  V30 105 H 6.589478 0.680923 -13.618199 0
M  V30 106 H 7.857218 6.212497 -15.572837 0
M  V30 107 H 9.002655 5.982123 -16.864460 0
M  V30 108 H 9.532095 4.348950 -15.243411 0
M  V30 109 H 8.798758 3.509419 -16.571004 0
M  V30 110 H 12.525803 7.937907 -11.143651 0
M  V30 111 H 12.882095 9.588441 -10.763916 0
M  V30 112 H 9.042839 3.989077 -7.985037 0
M  V30 113 H 10.437097 4.855783 -8.483600 0
M  V30 END ATOM
M  V30 BEGIN BOND
M  V30 1 1 2 1
M  V30 2 1 10 7
M  V30 3 1 10 8
M  V30 4 1 11 5
M  V30 5 1 12 2
M  V30 6 1 19 5
M  V30 7 1 19 7
M  V30 8 1 19 20 CFG=3
M  V30 9 1 21 15
M  V30 10 2 23 6
M  V30 11 1 25 19
M  V30 12 1 25 21
M  V30 13 1 26 5
M  V30 14 1 26 8
M  V30 15 1 28 6
M  V30 16 1 28 16
M  V30 17 1 29 15
M  V30 18 2 29 17
M  V30 19 1 29 21
M  V30 20 1 30 18
M  V30 21 1 31 2
M  V30 22 1 29 31 CFG=1
M  V30 23 1 32 20
M  V30 24 1 33 4
M  V30 25 1 33 18
M  V30 26 1 33 30
M  V30 27 1 34 22
M  V30 28 1 35 30
M  V30 29 2 36 25
M  V30 30 1 37 14
M  V30 31 1 21 37 CFG=1
M  V30 32 1 38 13
M  V30 33 2 38 24
M  V30 34 1 39 1
M  V30 35 1 39 15
M  V30 36 1 40 16
M  V30 37 1 41 6
M  V30 38 1 41 38
M  V30 39 1 42 3
M  V30 40 1 42 13
M  V30 41 1 43 9
M  V30 42 1 43 10
M  V30 43 1 44 8
M  V30 44 1 44 40
M  V30 45 1 45 40
M  V30 46 1 46 35
M  V30 47 1 47 16
M  V30 48 1 47 46
M  V30 49 1 48 3
M  V30 50 1 48 27
M  V30 51 1 49 22
M  V30 52 1 49 24
M  V30 53 1 50 1
M  V30 54 1 51 1
M  V30 55 1 2 52 CFG=1
M  V30 56 1 53 3
M  V30 57 1 54 3
M  V30 58 1 55 4
M  V30 59 1 56 4
M  V30 60 1 57 4
M  V30 61 1 5 58 CFG=1
M  V30 62 1 8 59 CFG=1
M  V30 63 1 60 9
M  V30 64 1 10 61 CFG=3
M  V30 65 1 62 11
M  V30 66 1 63 11
M  V30 67 1 64 11
M  V30 68 1 65 12
M  V30 69 1 66 13
M  V30 70 1 67 14
M  V30 71 1 68 14
M  V30 72 1 69 14
M  V30 73 1 15 70 CFG=3
M  V30 74 1 16 71 CFG=3
M  V30 75 1 72 18
M  V30 76 1 73 18
M  V30 77 1 74 20
M  V30 78 1 75 20
M  V30 79 1 76 26
M  V30 80 1 77 26
M  V30 81 1 78 27
M  V30 82 1 79 27
M  V30 83 1 80 27
M  V30 84 1 30 81 CFG=3
M  V30 85 1 82 31
M  V30 86 1 83 31
M  V30 87 1 84 32
M  V30 88 1 85 32
M  V30 89 1 86 32
M  V30 90 1 33 87 CFG=1
M  V30 91 1 88 35
M  V30 92 1 89 35
M  V30 93 1 90 36
M  V30 94 1 91 36
M  V30 95 1 92 37
M  V30 96 1 93 37
M  V30 97 1 94 39
M  V30 98 1 95 39
M  V30 99 1 40 96 CFG=1
M  V30 100 1 97 41
M  V30 101 1 98 41
M  V30 102 1 99 42
M  V30 103 1 100 42
M  V30 104 1 101 43
M  V30 105 1 102 43
M  V30 106 1 103 44
M  V30 107 1 104 44
M  V30 108 1 105 45
M  V30 109 1 106 46
M  V30 110 1 107 46
M  V30 111 1 108 47
M  V30 112 1 109 47
M  V30 113 1 110 48
M  V30 114 1 111 48
M  V30 115 1 112 49
M  V30 116 1 113 49
M  V30 END BOND
M  V30 END CTAB
M  END
>  <i_epik_Tot_Q>  (1) 
0

>  <i_epik_Tot_abs_Q>  (1) 
0

>  <i_i_glide_confnum>  (1) 
16569

>  <i_i_glide_lignum>  (1) 
155

>  <i_i_glide_posenum>  (1) 
90

>  <i_i_glide_rotatable_bonds>  (1) 
25

>  <i_lp_mmshare_version>  (1) 
72125

>  <i_m_source_file_index>  (1) 
87

>  <i_f3d_flags>  (1) 
0

>  <num_sample>  (1) 
100

>  <b_lp_Chiralities_Consistent>  (1) 
1

>  <r_epik_Charging_Adjusted_Penalty>  (1) 
1.2316584192148512

>  <r_epik_Ionization_Penalty>  (1) 
1.2316590375040075

>  <r_epik_Ionization_Penalty_Charging>  (1) 
0

>  <r_epik_Ionization_Penalty_Neutral>  (1) 
1.2316590375040075

>  <r_epik_State_Penalty>  (1) 
1.2316584192148512

>  <r_glide_ring_energy>  (1) 
0

>  <r_i_docking_score>  (1) 
-3.5939787864120993

>  <r_i_glide_ecoul>  (1) 
-1.5346371538848174

>  <r_i_glide_eff_state_penalty>  (1) 
1.2316584192148512

>  <r_i_glide_einternal>  (1) 
32.704926726917954

>  <r_i_glide_emodel>  (1) 
-33.388509268506652

>  <r_i_glide_emodel_strain>  (1) 
4.6455138080528968

>  <r_i_glide_energy>  (1) 
-43.814811254776103

>  <r_i_glide_erotb>  (1) 
0.57622798544967491

>  <r_i_glide_esite>  (1) 
-0.18042119221438768

>  <r_i_glide_evdw>  (1) 
-42.280174100891287

>  <r_i_glide_gscore>  (1) 
-4.8256372056269505

>  <r_i_glide_gscore_strain>  (1) 
0.16137845201322421

>  <r_i_glide_hbond>  (1) 
-0.15935665998136492

>  <r_i_glide_ligand_efficiency>  (1) 
-0.073346505845144891

>  <r_i_glide_ligand_efficiency_ln>  (1) 
-0.73469149874540685

>  <r_i_glide_ligand_efficiency_sa>  (1) 
-0.26839728764937199

>  <r_i_glide_lipo>  (1) 
-2.3481124762564587

>  <r_i_glide_metal>  (1) 
-0

>  <r_i_glide_rewards>  (1) 
-0.53114903651035106

>  <r_lp_Energy>  (1) 
45.821346999999996

>  <s_epik_Chemistry_Notes>  (1) 
This compound has an ester and may undergo hydrolysis at high or low pH. This compound has an imine and may undergo hydrolysis. This compound contains an acetal/aminal-like group ( X-CH(R)-Y where X, Y are N, S, or O) that may be acid/base labile, releasing an aldehyde.

>  <s_epik_cmdline>  (1) 
J2VwaWtfcHl0aG9uJywgJy1waHQnLCAnMS4wJywgJy1waCcsICc3LjQnLCAnLXRuJywgJzgnLCAnLW1hJywgJzUwMCcsICctaW1hZScsICc8aW5maWxlLm1hZT4nLCAnLW9tYWUnLCAnPG91dGZpbGUubWFlPic=

>  <s_epik_input>  (1) 
W09IXVtDQEBIXShbQ0gyXTEpW0NIMl1bQ0gyXVtDQEhdKFAxMj1PKVtDQEBdMihbQ0gyXVtDSDNdKUMoPVtDSDJdKVtDQF0zKFtDSDJdW0NIM10pW0NAQEhdKFtDSDNdKVtDSDJdW0NAQEhdKFtDQEBIXShPMylbQ0gyXVtPSF0pW0NIMl1bQ0BIXShbT0hdKVtDQEhdKFtDSDJdW0NIMl1bQ0gyXVtDQEBIXTRbQ0gyXVtDQEhdNFtDSDNdKU9DKD1PKVtDSDJdQyg9TlxbQ0gyXU9GKVxbTkhdW0NIMl1bQ0gyXVtDSDJdW0NIM10=

>  <s_glide_docking_method>  (1) 
confgen

>  <s_i_glide_gridfile>  (1) 
gpcr_drd2_6luq_protein_autoprepared_prepared

>  <s_lp_Force_Field>  (1) 
S-OPLS

>  <s_lp_Variant>  (1) 
DiffSBDD_86-3

>  <s_m_source_file>  (1) 
generated_generic_title2_ligand_DiffSBDD_2026-06-23_prepared.sdf

>  <GenAI_Model>  (1) 
DiffSBDD

>  <Protein>  (1) 
generic_title2

$$$$
DiffSBDD_81
     RDKit          3D

  0  0  0  0  0  0  0  0  0  0999 V3000
M  V30 BEGIN CTAB
M  V30 COUNTS 68 71 0 0 1
M  V30 BEGIN ATOM
M  V30 1 C 7.305460 4.484261 -13.280553 0 CFG=1
M  V30 2 C 9.895618 6.296927 -6.717297 0
M  V30 3 O 13.171739 8.390233 -8.661529 0
M  V30 4 C 11.863659 8.735703 -8.251735 0
M  V30 5 C 7.944682 2.438661 -14.865367 0
M  V30 6 C 7.729704 0.855567 -16.602030 0
M  V30 7 C 8.476282 1.946787 -16.051348 0
M  V30 8 C 6.523171 5.171551 -14.429384 0
M  V30 9 O 11.375397 10.389801 -5.781750 0
M  V30 10 O 8.975422 2.840842 -12.785023 0
M  V30 11 C 9.264111 5.575714 -11.746413 0 CFG=2
M  V30 12 C 7.625785 -1.140871 -17.970911 0
M  V30 13 C 5.536978 1.719203 -13.272358 0 CFG=1
M  V30 14 C 7.835402 5.643666 -12.345770 0
M  V30 15 C 6.175420 1.146586 -14.623323 0
M  V30 16 O 11.775423 8.517133 -4.450087 0
M  V30 17 N 6.386795 3.725559 -12.399873 0
M  V30 18 C 9.109396 8.549270 -7.229878 0
M  V30 19 C 6.823896 1.805983 -14.468732 0
M  V30 20 C 11.570582 8.183029 -6.826433 0 CFG=1
M  V30 21 O 5.319844 3.133802 -13.185022 0
M  V30 22 C 8.413692 3.524954 -13.888250 0 CFG=2
M  V30 23 C 9.485289 6.474220 -10.525529 0
M  V30 24 C 6.530213 0.436147 -15.854655 0
M  V30 25 C 10.146383 5.802879 -8.124563 0 CFG=2
M  V30 26 C 9.072633 5.840799 -9.199356 0 CFG=2
M  V30 27 O 10.175105 5.991889 -12.738477 0
M  V30 28 O 9.516757 0.199023 -17.984174 0
M  V30 29 C 9.563146 4.523894 -8.644860 0
M  V30 30 C 12.022554 9.143614 -5.691888 0
M  V30 31 N 8.125664 0.220169 -17.799322 0
M  V30 32 N 10.160327 7.748339 -6.581015 0 CFG=2 CHG=1
M  V30 33 H 8.869168 6.069619 -6.420670 0
M  V30 34 H 10.549948 5.760428 -6.032017 0
M  V30 35 H 13.471695 9.022258 -9.304581 0
M  V30 36 H 11.180255 8.334481 -8.997173 0
M  V30 37 H 11.775289 9.818509 -8.295937 0
M  V30 38 H 9.375575 2.337427 -16.502299 0
M  V30 39 H 7.178787 5.836100 -14.994688 0
M  V30 40 H 6.122581 4.461164 -15.150332 0
M  V30 41 H 5.691890 5.771298 -14.056040 0
M  V30 42 H 11.823596 11.022255 -5.240340 0
M  V30 43 H 8.267957 2.422721 -12.317955 0
M  V30 44 H 9.545812 4.586893 -11.412929 0
M  V30 45 H 6.562988 -1.134725 -18.214130 0
M  V30 46 H 8.136255 -1.642003 -18.794519 0
M  V30 47 H 7.776132 -1.741717 -17.072507 0
M  V30 48 H 5.941866 1.263806 -12.370061 0
M  V30 49 H 7.769919 6.593148 -12.878902 0
M  V30 50 H 7.140816 5.797367 -11.516369 0
M  V30 51 H 12.311564 8.924007 -3.784582 0
M  V30 52 H 5.912980 4.378813 -11.791644 0
M  V30 53 H 8.975437 8.304229 -8.279597 0
M  V30 54 H 8.175364 8.399298 -6.700854 0
M  V30 55 H 9.353182 9.590222 -7.185008 0
M  V30 56 H 12.173381 7.278879 -6.731908 0
M  V30 57 H 9.176502 4.126815 -14.381166 0
M  V30 58 H 10.544814 6.724375 -10.467558 0
M  V30 59 H 8.975389 7.430326 -10.643955 0
M  V30 60 H 5.911484 -0.373408 -16.209814 0
M  V30 61 H 11.164223 5.990092 -8.447659 0
M  V30 62 H 8.031671 5.990265 -8.927640 0
M  V30 63 H 9.991231 6.892721 -12.954462 0
M  V30 64 H 9.861647 -0.287533 -17.251032 0
M  V30 65 H 8.882345 3.990452 -7.985021 0
M  V30 66 H 10.175400 3.893377 -9.277406 0
M  V30 67 H 13.092124 9.329689 -5.788293 0
M  V30 68 H 10.059407 7.929085 -5.589878 0
M  V30 END ATOM
M  V30 BEGIN BOND
M  V30 1 1 4 3
M  V30 2 2 7 5
M  V30 3 1 7 6
M  V30 4 1 1 8 CFG=3
M  V30 5 1 14 1
M  V30 6 1 14 11
M  V30 7 1 15 13
M  V30 8 1 17 1
M  V30 9 1 19 5
M  V30 10 1 19 13
M  V30 11 2 19 15
M  V30 12 1 20 4
M  V30 13 1 21 13
M  V30 14 1 21 17
M  V30 15 1 22 1
M  V30 16 1 22 5
M  V30 17 1 22 10
M  V30 18 1 23 11
M  V30 19 2 24 6
M  V30 20 1 24 15
M  V30 21 1 25 2
M  V30 22 1 26 23
M  V30 23 1 26 25
M  V30 24 1 27 11
M  V30 25 1 29 25
M  V30 26 1 29 26
M  V30 27 1 30 9
M  V30 28 1 30 16
M  V30 29 1 30 20
M  V30 30 1 31 6
M  V30 31 1 31 12
M  V30 32 1 31 28
M  V30 33 1 32 2
M  V30 34 1 32 18
M  V30 35 1 32 20
M  V30 36 1 33 2
M  V30 37 1 34 2
M  V30 38 1 35 3
M  V30 39 1 36 4
M  V30 40 1 37 4
M  V30 41 1 38 7
M  V30 42 1 39 8
M  V30 43 1 40 8
M  V30 44 1 41 8
M  V30 45 1 42 9
M  V30 46 1 43 10
M  V30 47 1 11 44 CFG=1
M  V30 48 1 45 12
M  V30 49 1 46 12
M  V30 50 1 47 12
M  V30 51 1 13 48 CFG=1
M  V30 52 1 49 14
M  V30 53 1 50 14
M  V30 54 1 51 16
M  V30 55 1 52 17
M  V30 56 1 53 18
M  V30 57 1 54 18
M  V30 58 1 55 18
M  V30 59 1 20 56 CFG=1
M  V30 60 1 22 57 CFG=3
M  V30 61 1 58 23
M  V30 62 1 59 23
M  V30 63 1 60 24
M  V30 64 1 25 61 CFG=3
M  V30 65 1 26 62 CFG=1
M  V30 66 1 63 27
M  V30 67 1 64 28
M  V30 68 1 65 29
M  V30 69 1 66 29
M  V30 70 1 67 30
M  V30 71 1 32 68 CFG=1
M  V30 END BOND
M  V30 END CTAB
M  END
>  <i_epik_Tot_Q>  (1) 
1

>  <i_epik_Tot_abs_Q>  (1) 
1

>  <i_i_glide_confnum>  (1) 
775

>  <i_i_glide_lignum>  (1) 
143

>  <i_i_glide_posenum>  (1) 
102

>  <i_i_glide_rotatable_bonds>  (1) 
16

>  <i_lp_mmshare_version>  (1) 
72125

>  <i_m_source_file_index>  (1) 
82

>  <i_f3d_flags>  (1) 
0

>  <num_sample>  (1) 
100

>  <b_lp_Chiralities_Consistent>  (1) 
1

>  <r_epik_Charging_Adjusted_Penalty>  (1) 
0.61642058797261945

>  <r_epik_Ionization_Penalty>  (1) 
0.30960007796245242

>  <r_epik_Ionization_Penalty_Charging>  (1) 
0.30821029398630978

>  <r_epik_Ionization_Penalty_Neutral>  (1) 
0.0013897839761426282

>  <r_epik_State_Penalty>  (1) 
0.30821029398630967

>  <r_glide_ring_energy>  (1) 
0

>  <r_i_docking_score>  (1) 
-3.5828563955621586

>  <r_i_glide_ecoul>  (1) 
-2.652100500884349

>  <r_i_glide_eff_state_penalty>  (1) 
0.30821029398630967

>  <r_i_glide_einternal>  (1) 
23.926631988431371

>  <r_i_glide_emodel>  (1) 
-20.279356840830573

>  <r_i_glide_emodel_strain>  (1) 
2.8905708796701219

>  <r_i_glide_energy>  (1) 
-27.372401626580857

>  <r_i_glide_erotb>  (1) 
0.97195684176611152

>  <r_i_glide_esite>  (1) 
0

>  <r_i_glide_evdw>  (1) 
-24.720301125696508

>  <r_i_glide_gscore>  (1) 
-3.8910666895484685

>  <r_i_glide_gscore_strain>  (1) 
0

>  <r_i_glide_hbond>  (1) 
-0.2076514467971127

>  <r_i_glide_ligand_efficiency>  (1) 
-0.11196426236131746

>  <r_i_glide_ligand_efficiency_ln>  (1) 
-0.80229921194308418

>  <r_i_glide_ligand_efficiency_sa>  (1) 
-0.35546437571039768

>  <r_i_glide_lipo>  (1) 
-1.7437544112109189

>  <r_i_glide_metal>  (1) 
-0

>  <r_i_glide_rewards>  (1) 
-1.2777875418890705

>  <r_lp_Energy>  (1) 
79.058359999999993

>  <s_epik_Chemistry_Notes>  (1) 
This compound contains an acetal/aminal-like group ( X-CH(R)-Y where X, Y are N, S, or O) that may be acid/base labile, releasing an aldehyde. This compound has a N-S or N-O group and may undergo hydrolysis at high or low pH.

>  <s_epik_cmdline>  (1) 
J2VwaWtfcHl0aG9uJywgJy1waHQnLCAnMS4wJywgJy1waCcsICc3LjQnLCAnLXRuJywgJzgnLCAnLW1hJywgJzUwMCcsICctaW1hZScsICc8aW5maWxlLm1hZT4nLCAnLW9tYWUnLCAnPG91dGZpbGUubWFlPic=

>  <s_epik_input>  (1) 
W0NIM11OKFtPSF0pYyhbY0hdMSlbY0hdYyhjMmMxMylbQ0BASF0yT1tOSF1bQ0BdKFtDSDNdKShbQ0BIXTNbT0hdKVtDSDJdW0NAQEhdKFtPSF0pW0NIMl1bQ0BASF0oW0NIMl00KVtDQEhdNFtDSDJdTihbQ0gzXSlbQ0BASF0oW0NIMl1bT0hdKVtDSF0oW09IXSlbT0hd

>  <s_glide_docking_method>  (1) 
confgen

>  <s_i_glide_gridfile>  (1) 
gpcr_drd2_6luq_protein_autoprepared_prepared

>  <s_lp_Force_Field>  (1) 
S-OPLS

>  <s_lp_Variant>  (1) 
DiffSBDD_81-1

>  <s_m_source_file>  (1) 
generated_generic_title2_ligand_DiffSBDD_2026-06-23_prepared.sdf

>  <GenAI_Model>  (1) 
DiffSBDD

>  <Protein>  (1) 
generic_title2

$$$$
DiffSBDD_90
     RDKit          3D

  0  0  0  0  0  0  0  0  0  0999 V3000
M  V30 BEGIN CTAB
M  V30 COUNTS 80 84 0 0 1
M  V30 BEGIN ATOM
M  V30 1 C 8.813997 4.109294 -16.632049 0
M  V30 2 C 7.682447 3.094838 -16.846062 0 CFG=1
M  V30 3 C 9.063062 1.101485 -19.572522 0
M  V30 4 C 8.518955 5.833450 -9.997316 0 CFG=2
M  V30 5 C 7.135081 1.146765 -18.543368 0
M  V30 6 C 10.041162 0.648733 -20.529656 0 CFG=2
M  V30 7 C 7.629472 3.613178 -13.078736 0 CFG=2
M  V30 8 O 7.776918 5.724264 -15.382155 0 CHG=-1
M  V30 9 C 8.558945 4.692227 -15.227950 0 CFG=1
M  V30 10 C 10.061418 4.789955 -8.204153 0
M  V30 11 O 8.975445 6.618015 -6.429851 0
M  V30 12 C 7.931832 2.119405 -17.961000 0
M  V30 13 C 8.061530 1.232007 -14.937362 0 CFG=2
M  V30 14 O 9.781016 8.709559 -6.453687 0 CHG=-1
M  V30 15 O 7.593611 5.190173 -9.348544 0 CHG=-1
M  V30 16 C 7.842197 4.988158 -12.317417 0 CFG=2
M  V30 17 N 8.674526 4.837413 -11.073865 0 CHG=1
M  V30 18 N 7.633074 3.762091 -14.565852 0 CFG=1 CHG=1
M  V30 19 C 11.333928 8.150689 -10.210968 0
M  V30 20 C 6.554455 5.863882 -12.187793 0
M  V30 21 O 8.175433 0.132578 -15.818576 0
M  V30 22 O 5.671406 5.399496 -11.186257 0
M  V30 23 O 6.365860 0.471029 -12.695080 0
M  V30 24 C 6.575269 1.495690 -14.857572 0 CFG=1
M  V30 25 C 9.553176 7.584753 -6.960397 0
M  V30 26 C 6.285716 2.913070 -12.723838 0
M  V30 27 N 7.905189 0.568844 -19.514720 0
M  V30 28 O 10.835337 7.590200 -11.186332 0
M  V30 29 C 9.107029 -0.531863 -21.089197 0
M  V30 30 N 9.130640 2.049994 -18.645492 0 CHG=1
M  V30 31 C 9.767398 5.986067 -9.068053 0 CFG=2
M  V30 32 O 13.432025 -0.332036 -20.052236 0
M  V30 33 O 11.234838 0.221614 -19.895853 0
M  V30 34 C 12.283868 -0.025069 -20.769277 0
M  V30 35 C 12.706863 8.790232 -10.317685 0
M  V30 36 C 10.075378 7.377323 -8.380705 0
M  V30 37 C 5.973584 1.590605 -13.464631 0 CFG=2
M  V30 38 C 14.560968 -0.583290 -20.872693 0
M  V30 39 N 10.770283 8.288593 -8.964616 0
M  V30 40 C 7.637620 -0.487066 -20.431279 0
M  V30 41 C 7.497856 2.559725 -15.432391 0 CFG=1
M  V30 42 H 9.778011 3.597955 -16.608899 0
M  V30 43 H 8.867703 4.862898 -17.420790 0
M  V30 44 H 6.790725 3.659350 -17.113385 0
M  V30 45 H 8.422690 6.790338 -10.497300 0
M  V30 46 H 6.120743 0.835537 -18.339239 0
M  V30 47 H 10.186846 1.462416 -21.242010 0
M  V30 48 H 8.462987 2.963422 -12.811634 0
M  V30 49 H 9.514038 4.716991 -14.699505 0
M  V30 50 H 10.943579 4.968314 -7.585741 0
M  V30 51 H 9.207359 4.541838 -7.585033 0
M  V30 52 H 10.216040 3.890887 -8.796213 0
M  V30 53 H 8.639036 1.133251 -14.022032 0
M  V30 54 H 8.515414 5.616840 -12.892970 0
M  V30 55 H 8.366341 4.009283 -10.585036 0
M  V30 56 H 6.022303 5.895272 -13.138783 0
M  V30 57 H 6.798732 6.903697 -11.972715 0
M  V30 58 H 7.960720 -0.664933 -15.350590 0
M  V30 59 H 6.185172 5.379457 -10.361593 0
M  V30 60 H 5.911656 -0.301012 -13.009973 0
M  V30 61 H 5.944344 0.962906 -15.569968 0
M  V30 62 H 6.175388 2.786326 -11.646701 0
M  V30 63 H 5.476316 3.585574 -13.009423 0
M  V30 64 H 9.047716 -0.490346 -22.177438 0
M  V30 65 H 9.563883 -1.492766 -20.848051 0
M  V30 66 H 10.575405 5.842224 -9.732911 0
M  V30 67 H 12.024137 -0.862760 -21.419863 0
M  V30 68 H 12.469323 0.861024 -21.380627 0
M  V30 69 H 13.316509 8.563254 -9.441720 0
M  V30 70 H 13.240460 8.445460 -11.202579 0
M  V30 71 H 12.575387 9.868677 -10.384119 0
M  V30 72 H 4.892337 1.512050 -13.582806 0
M  V30 73 H 15.421622 -0.826352 -20.248754 0
M  V30 74 H 14.386374 -1.426139 -21.543038 0
M  V30 75 H 14.817671 0.293650 -21.469235 0
M  V30 76 H 7.365363 -1.392305 -19.887728 0
M  V30 77 H 6.853329 -0.177410 -21.122770 0
M  V30 78 H 9.940981 2.630053 -18.469760 0
M  V30 79 H 9.649807 4.752555 -11.312014 0
M  V30 80 H 6.792420 4.294262 -14.743011 0
M  V30 END ATOM
M  V30 BEGIN BOND
M  V30 1 1 2 1
M  V30 2 1 6 3
M  V30 3 1 9 1
M  V30 4 1 9 8
M  V30 5 1 12 2
M  V30 6 2 12 5
M  V30 7 1 15 4
M  V30 8 1 16 7
M  V30 9 1 17 4
M  V30 10 1 17 16
M  V30 11 1 18 7
M  V30 12 1 18 9
M  V30 13 1 20 16
M  V30 14 1 21 13
M  V30 15 1 22 20
M  V30 16 1 24 13
M  V30 17 2 25 11
M  V30 18 1 25 14
M  V30 19 1 26 7
M  V30 20 1 27 3
M  V30 21 1 27 5
M  V30 22 2 28 19
M  V30 23 1 29 6
M  V30 24 2 30 3
M  V30 25 1 30 12
M  V30 26 1 31 4
M  V30 27 1 31 10
M  V30 28 1 33 6
M  V30 29 1 34 32
M  V30 30 1 34 33
M  V30 31 1 35 19
M  V30 32 1 36 25
M  V30 33 1 36 31
M  V30 34 1 37 23
M  V30 35 1 37 24
M  V30 36 1 37 26
M  V30 37 1 38 32
M  V30 38 1 39 19
M  V30 39 2 39 36
M  V30 40 1 40 27
M  V30 41 1 40 29
M  V30 42 1 41 2 CFG=3
M  V30 43 1 41 13
M  V30 44 1 41 18
M  V30 45 1 41 24
M  V30 46 1 42 1
M  V30 47 1 43 1
M  V30 48 1 2 44 CFG=3
M  V30 49 1 4 45 CFG=3
M  V30 50 1 46 5
M  V30 51 1 6 47 CFG=3
M  V30 52 1 7 48 CFG=3
M  V30 53 1 9 49 CFG=1
M  V30 54 1 50 10
M  V30 55 1 51 10
M  V30 56 1 52 10
M  V30 57 1 13 53 CFG=1
M  V30 58 1 16 54 CFG=3
M  V30 59 1 55 17
M  V30 60 1 56 20
M  V30 61 1 57 20
M  V30 62 1 58 21
M  V30 63 1 59 22
M  V30 64 1 60 23
M  V30 65 1 24 61 CFG=3
M  V30 66 1 62 26
M  V30 67 1 63 26
M  V30 68 1 64 29
M  V30 69 1 65 29
M  V30 70 1 31 66 CFG=3
M  V30 71 1 67 34
M  V30 72 1 68 34
M  V30 73 1 69 35
M  V30 74 1 70 35
M  V30 75 1 71 35
M  V30 76 1 37 72 CFG=3
M  V30 77 1 73 38
M  V30 78 1 74 38
M  V30 79 1 75 38
M  V30 80 1 76 40
M  V30 81 1 77 40
M  V30 82 1 78 30
M  V30 83 1 79 17
M  V30 84 1 18 80 CFG=1
M  V30 END BOND
M  V30 END CTAB
M  END
>  <i_epik_Tot_Q>  (1) 
0

>  <i_epik_Tot_abs_Q>  (1) 
6

>  <i_i_glide_confnum>  (1) 
2108

>  <i_i_glide_lignum>  (1) 
166

>  <i_i_glide_posenum>  (1) 
276

>  <i_i_glide_rotatable_bonds>  (1) 
15

>  <i_lp_mmshare_version>  (1) 
72125

>  <i_m_source_file_index>  (1) 
91

>  <i_f3d_flags>  (1) 
0

>  <num_sample>  (1) 
100

>  <b_lp_Chiralities_Consistent>  (1) 
1

>  <r_epik_Charging_Adjusted_Penalty>  (1) 
0.35079833336250127

>  <r_epik_Ionization_Penalty>  (1) 
1.4702178244609605

>  <r_epik_Ionization_Penalty_Charging>  (1) 
0.099885809697688246

>  <r_epik_Ionization_Penalty_Neutral>  (1) 
1.3703320147632723

>  <r_epik_State_Penalty>  (1) 
0.25091252366481304

>  <r_glide_ring_energy>  (1) 
0

>  <r_i_docking_score>  (1) 
-3.5786676885386326

>  <r_i_glide_ecoul>  (1) 
-5.3495584270329477

>  <r_i_glide_eff_state_penalty>  (1) 
0.25091252366481304

>  <r_i_glide_einternal>  (1) 
23.139763714773714

>  <r_i_glide_emodel>  (1) 
-30.240364170811361

>  <r_i_glide_emodel_strain>  (1) 
3.0706375785030673

>  <r_i_glide_energy>  (1) 
-33.878999934409599

>  <r_i_glide_erotb>  (1) 
0.57888693115673628

>  <r_i_glide_esite>  (1) 
-0.21725304494300995

>  <r_i_glide_evdw>  (1) 
-28.529441507376649

>  <r_i_glide_gscore>  (1) 
-3.8295802122034455

>  <r_i_glide_gscore_strain>  (1) 
0

>  <r_i_glide_hbond>  (1) 
-0.014789648260808353

>  <r_i_glide_ligand_efficiency>  (1) 
-0.087284577769234942

>  <r_i_glide_ligand_efficiency_ln>  (1) 
-0.7592262593835355

>  <r_i_glide_ligand_efficiency_sa>  (1) 
-0.30097618588340314

>  <r_i_glide_lipo>  (1) 
-1.1869577713993513

>  <r_i_glide_metal>  (1) 
-0

>  <r_i_glide_rewards>  (1) 
-0.76056083933323715

>  <r_lp_Energy>  (1) 
62.791187999999998

>  <r_lp_tautomer_probability>  (1) 
1

>  <s_epik_Chemistry_Notes>  (1) 
This compound has an imine and may undergo hydrolysis. This compound contains an acetal/aminal-like group ( X-CH(R)-Y where X, Y are N, S, or O) that may be acid/base labile, releasing an aldehyde.

>  <s_epik_cmdline>  (1) 
J2VwaWtfcHl0aG9uJywgJy1waHQnLCAnMS4wJywgJy1waCcsICc3LjQnLCAnLXRuJywgJzgnLCAnLW1hJywgJzUwMCcsICctaW1hZScsICc8aW5maWxlLm1hZT4nLCAnLW9tYWUnLCAnPG91dGZpbGUubWFlPic=

>  <s_epik_input>  (1) 
W0NIM11PW0NIMl1PW0NASF0xW0NIMl1bQ0gyXW4oYzEyKVtjSF1jKG4yKVtDQEBIXTNbQ0gyXVtDQEBIXShbT0hdKU4oW0NAQF0zNDUpW0NASF0oW0NIMl1bQ0BIXShbT0hdKVtDQEBIXTVbQ0BIXTRbT0hdKVtDQEBIXShbQ0gyXVtPSF0pW05IXVtDQEBIXShbT0hdKVtDQEhdKFtDSDNdKUMoXEMoPU8pW09IXSk9Ti9DKD1PKVtDSDNd

>  <s_glide_docking_method>  (1) 
confgen

>  <s_i_glide_gridfile>  (1) 
gpcr_drd2_6luq_protein_autoprepared_prepared

>  <s_lp_Force_Field>  (1) 
S-OPLS

>  <s_lp_Variant>  (1) 
DiffSBDD_90-1

>  <s_m_source_file>  (1) 
generated_generic_title2_ligand_DiffSBDD_2026-06-23_prepared.sdf

>  <GenAI_Model>  (1) 
DiffSBDD

>  <Protein>  (1) 
generic_title2

$$$$
DiffSBDD_94
     RDKit          3D

  0  0  0  0  0  0  0  0  0  0999 V3000
M  V30 BEGIN CTAB
M  V30 COUNTS 65 69 0 0 1
M  V30 BEGIN ATOM
M  V30 1 C 5.930747 4.840382 -14.530717 0
M  V30 2 C 8.668855 5.990213 -10.394586 0
M  V30 3 O 10.641973 10.176120 -4.903432 0
M  V30 4 C 6.511676 5.850788 -13.539956 0
M  V30 5 C 10.708314 9.006624 -5.693577 0 CFG=1
M  V30 6 N 6.035628 5.053184 -21.401352 0
M  V30 7 C 6.703592 4.187467 -22.208151 0
M  V30 8 C 7.014025 3.945961 -15.135151 0 CFG=2
M  V30 9 C 7.754017 4.867179 -19.820774 0
M  V30 10 C 12.028560 8.962348 -6.431510 0 CFG=1
M  V30 11 Cl 6.723296 2.081411 -13.185281 0
M  V30 12 C 11.775395 8.074697 -5.216308 0
M  V30 13 C 8.257957 5.281281 -18.438570 0 CFG=2
M  V30 14 C 9.400888 7.129487 -11.933860 0
M  V30 15 C 8.071383 6.420879 -11.738004 0 CFG=1
M  V30 16 C 7.773334 3.277052 -13.994989 0 CFG=2
M  V30 17 C 10.670509 8.191589 -8.515066 0 CFG=1
M  V30 18 C 9.793952 5.359293 -18.329016 0
M  V30 19 C 7.936637 3.617694 -21.857193 0
M  V30 20 O 9.353185 3.928024 -12.322281 0
M  V30 21 N 6.561797 5.396391 -20.207517 0
M  V30 22 N 9.375470 7.278597 -10.470156 0 CFG=2 CHG=1
M  V30 23 C 12.069107 8.456949 -7.883551 0
M  V30 24 N 7.675275 5.416904 -12.741810 0
M  V30 25 F 12.918639 9.989653 -6.178094 0
M  V30 26 C 10.705245 7.378608 -9.815022 0
M  V30 27 C 8.481944 3.966868 -20.620719 0
M  V30 28 C 9.424785 8.431313 -6.283027 0
M  V30 29 O 9.382654 6.401910 -7.540504 0
M  V30 30 C 8.341715 4.240485 -12.944854 0
M  V30 31 C 7.639030 4.331357 -17.402466 0
M  V30 32 C 9.775527 7.563080 -7.457283 0
M  V30 33 N 7.866158 4.742230 -16.023010 0
M  V30 34 H 5.375431 5.363885 -15.309327 0
M  V30 35 H 5.207386 4.230659 -13.985460 0
M  V30 36 H 9.356066 5.147904 -10.355684 0
M  V30 37 H 7.935423 5.925530 -9.592410 0
M  V30 38 H 11.477199 10.616703 -4.971633 0
M  V30 39 H 5.711068 6.185435 -12.877889 0
M  V30 40 H 6.826299 6.732952 -14.099995 0
M  V30 41 H 6.235965 3.947581 -23.151467 0
M  V30 42 H 6.575565 3.129906 -15.705832 0
M  V30 43 H 12.284936 8.324103 -4.286886 0
M  V30 44 H 11.636331 7.007648 -5.384400 0
M  V30 45 H 7.872691 6.285812 -18.253855 0
M  V30 46 H 9.341058 8.077332 -12.467314 0
M  V30 47 H 10.210417 6.495147 -12.304960 0
M  V30 48 H 7.278791 7.162031 -11.585040 0
M  V30 49 H 8.575395 2.686170 -14.420848 0
M  V30 50 H 10.229989 9.162081 -8.745130 0
M  V30 51 H 10.209804 5.990140 -19.114978 0
M  V30 52 H 10.094404 5.793455 -17.375009 0
M  V30 53 H 10.261314 4.377227 -18.397109 0
M  V30 54 H 8.443024 2.930258 -22.518455 0
M  V30 55 H 12.683983 7.560422 -7.911001 0
M  V30 56 H 12.593296 9.190066 -8.495440 0
M  V30 57 H 11.412691 7.840671 -10.504345 0
M  V30 58 H 11.076426 6.390351 -9.578087 0
M  V30 59 H 9.423042 3.554677 -20.291799 0
M  V30 60 H 8.934323 7.781074 -5.584526 0
M  V30 61 H 8.727409 9.190222 -6.618075 0
M  V30 62 H 8.008713 3.315675 -17.548966 0
M  V30 63 H 6.567477 4.306755 -17.584206 0
M  V30 64 H 8.844096 4.625282 -15.795602 0
M  V30 65 H 8.715972 7.990106 -10.169659 0
M  V30 END ATOM
M  V30 BEGIN BOND
M  V30 1 1 4 1
M  V30 2 1 5 3 CFG=1
M  V30 3 1 7 6
M  V30 4 1 8 1
M  V30 5 1 10 5
M  V30 6 1 12 5
M  V30 7 1 12 10
M  V30 8 1 13 9
M  V30 9 1 15 2
M  V30 10 1 15 14
M  V30 11 1 16 8
M  V30 12 1 16 11
M  V30 13 1 18 13
M  V30 14 2 19 7
M  V30 15 2 21 6
M  V30 16 1 21 9
M  V30 17 1 22 2
M  V30 18 1 22 14
M  V30 19 1 23 10
M  V30 20 1 23 17
M  V30 21 1 24 4
M  V30 22 1 24 15
M  V30 23 1 10 25 CFG=1
M  V30 24 1 26 17
M  V30 25 1 26 22
M  V30 26 2 27 9
M  V30 27 1 27 19
M  V30 28 1 28 5
M  V30 29 1 30 16
M  V30 30 2 30 20
M  V30 31 1 30 24
M  V30 32 1 31 13
M  V30 33 1 32 17
M  V30 34 1 32 28
M  V30 35 2 32 29
M  V30 36 1 33 8
M  V30 37 1 33 31
M  V30 38 1 34 1
M  V30 39 1 35 1
M  V30 40 1 36 2
M  V30 41 1 37 2
M  V30 42 1 38 3
M  V30 43 1 39 4
M  V30 44 1 40 4
M  V30 45 1 41 7
M  V30 46 1 8 42 CFG=3
M  V30 47 1 43 12
M  V30 48 1 44 12
M  V30 49 1 13 45 CFG=1
M  V30 50 1 46 14
M  V30 51 1 47 14
M  V30 52 1 15 48 CFG=1
M  V30 53 1 16 49 CFG=3
M  V30 54 1 17 50 CFG=3
M  V30 55 1 51 18
M  V30 56 1 52 18
M  V30 57 1 53 18
M  V30 58 1 54 19
M  V30 59 1 55 23
M  V30 60 1 56 23
M  V30 61 1 57 26
M  V30 62 1 58 26
M  V30 63 1 59 27
M  V30 64 1 60 28
M  V30 65 1 61 28
M  V30 66 1 62 31
M  V30 67 1 63 31
M  V30 68 1 64 33
M  V30 69 1 22 65 CFG=3
M  V30 END BOND
M  V30 END CTAB
M  END
>  <i_epik_Tot_Q>  (1) 
1

>  <i_epik_Tot_abs_Q>  (1) 
1

>  <i_i_glide_confnum>  (1) 
38

>  <i_i_glide_lignum>  (1) 
182

>  <i_i_glide_posenum>  (1) 
109

>  <i_i_glide_rotatable_bonds>  (1) 
8

>  <i_lp_mmshare_version>  (1) 
72125

>  <i_m_source_file_index>  (1) 
95

>  <i_f3d_flags>  (1) 
0

>  <num_sample>  (1) 
100

>  <b_lp_Chiralities_Consistent>  (1) 
1

>  <r_epik_Charging_Adjusted_Penalty>  (1) 
1.4532026091556733

>  <r_epik_Ionization_Penalty>  (1) 
1.1658176113502041

>  <r_epik_Ionization_Penalty_Charging>  (1) 
0.22723193656236854

>  <r_epik_Ionization_Penalty_Neutral>  (1) 
0.93858567478783561

>  <r_epik_State_Penalty>  (1) 
1.2259706725933048

>  <r_glide_ring_energy>  (1) 
1.316578271852465

>  <r_i_docking_score>  (1) 
-3.5762066605634546

>  <r_i_glide_ecoul>  (1) 
-3.8382317603914737

>  <r_i_glide_eff_state_penalty>  (1) 
1.2259706725933048

>  <r_i_glide_einternal>  (1) 
11.505390696506208

>  <r_i_glide_emodel>  (1) 
-34.658755880849625

>  <r_i_glide_emodel_strain>  (1) 
0.48443858420527874

>  <r_i_glide_energy>  (1) 
-33.808493371899132

>  <r_i_glide_erotb>  (1) 
0.52602338862990483

>  <r_i_glide_esite>  (1) 
-0.16989915010236228

>  <r_i_glide_evdw>  (1) 
-29.970261611507659

>  <r_i_glide_gscore>  (1) 
-4.8021773331567594

>  <r_i_glide_gscore_strain>  (1) 
0

>  <r_i_glide_hbond>  (1) 
-0.13023949235507645

>  <r_i_glide_ligand_efficiency>  (1) 
-0.10836989880495317

>  <r_i_glide_ligand_efficiency_ln>  (1) 
-0.79532984470221135

>  <r_i_glide_ligand_efficiency_sa>  (1) 
-0.347600170755061

>  <r_i_glide_lipo>  (1) 
-1.6826248046504173

>  <r_i_glide_metal>  (1) 
-0

>  <r_i_glide_rewards>  (1) 
-1.2711894300447051

>  <r_lp_Energy>  (1) 
59.784298

>  <s_epik_cmdline>  (1) 
J2VwaWtfcHl0aG9uJywgJy1waHQnLCAnMS4wJywgJy1waCcsICc3LjQnLCAnLXRuJywgJzgnLCAnLW1hJywgJzUwMCcsICctaW1hZScsICc8aW5maWxlLm1hZT4nLCAnLW9tYWUnLCAnPG91dGZpbGUubWFlPic=

>  <s_epik_input>  (1) 
W2NIXTFbY0hdW2NIXW5uYzFbQ0BIXShbQ0gzXSlbQ0gyXVtOSF1bQ0BASF0yW0NIMl1bQ0gyXU4oQyg9TylbQ0BIXTJDbClbQ0hdM1tDSDJdTihbQ0gyXTMpW0NIMl1bQ0BASF0oQyg9TylbQ0gyXTQpW0NIMl1bQ0BdKEYpKFtDSDJdNSlbQ0BAXTQ1W09IXQ==

>  <s_glide_docking_method>  (1) 
confgen

>  <s_i_glide_gridfile>  (1) 
gpcr_drd2_6luq_protein_autoprepared_prepared

>  <s_lp_Force_Field>  (1) 
S-OPLS

>  <s_lp_Variant>  (1) 
DiffSBDD_94-5

>  <s_m_source_file>  (1) 
generated_generic_title2_ligand_DiffSBDD_2026-06-23_prepared.sdf

>  <GenAI_Model>  (1) 
DiffSBDD

>  <Protein>  (1) 
generic_title2

$$$$
DiffSBDD_88
     RDKit          3D

  0  0  0  0  0  0  0  0  0  0999 V3000
M  V30 BEGIN CTAB
M  V30 COUNTS 36 37 0 0 1
M  V30 BEGIN ATOM
M  V30 1 C 7.716243 6.744121 -12.371378 0 CFG=1
M  V30 2 F 5.543035 7.212583 -13.262631 0
M  V30 3 C 9.706822 6.184703 -7.941696 0
M  V30 4 C 9.964987 6.847311 -6.585310 0
M  V30 5 O 10.298364 7.990227 -11.008891 0
M  V30 6 O 10.975420 8.970155 -5.927793 0
M  V30 7 O 8.175409 6.677537 -13.585026 0 CHG=-1
M  V30 8 C 11.024123 7.917312 -6.868218 0 CFG=2
M  V30 9 C 8.054253 4.215746 -11.828630 0
M  V30 10 N 10.115264 7.217414 -8.893321 0
M  V30 11 C 6.198743 6.397263 -12.439842 0 CFG=1
M  V30 12 F 6.175411 2.742028 -12.117227 0
M  V30 13 C 6.524185 3.990223 -11.805528 0 CFG=2
M  V30 14 C 9.947061 7.103600 -10.234416 0
M  V30 15 C 6.140907 4.532089 -14.256870 0
M  V30 16 N 9.357486 5.893095 -10.604247 0
M  V30 17 C 8.462968 5.651920 -11.514236 0
M  V30 18 C 10.733728 8.386408 -8.294495 0
M  V30 19 C 5.845182 4.930998 -12.796562 0 CFG=2
M  V30 20 H 7.752047 7.681895 -11.817356 0
M  V30 21 H 8.655882 5.906924 -8.047617 0
M  V30 22 H 10.325449 5.294523 -8.066105 0
M  V30 23 H 10.271228 6.135489 -5.818168 0
M  V30 24 H 9.041409 7.322245 -6.250237 0
M  V30 25 H 11.116241 8.604432 -5.068238 0
M  V30 26 H 12.009284 7.451842 -6.846014 0
M  V30 27 H 8.485986 3.916876 -12.784111 0
M  V30 28 H 8.539052 3.590227 -11.086695 0
M  V30 29 H 5.775504 6.608999 -11.455702 0
M  V30 30 H 6.141002 4.167538 -10.798130 0
M  V30 31 H 7.197017 4.523590 -14.518219 0
M  V30 32 H 5.775410 3.524827 -14.417319 0
M  V30 33 H 5.633033 5.192474 -14.959224 0
M  V30 34 H 9.999302 9.190223 -8.308746 0
M  V30 35 H 11.636601 8.715752 -8.811036 0
M  V30 36 H 4.776651 4.790228 -12.660168 0
M  V30 END ATOM
M  V30 BEGIN BOND
M  V30 1 1 4 3
M  V30 2 1 7 1
M  V30 3 1 8 4
M  V30 4 1 8 6
M  V30 5 1 10 3
M  V30 6 1 11 1
M  V30 7 1 11 2
M  V30 8 1 13 9
M  V30 9 1 13 12
M  V30 10 2 14 5
M  V30 11 1 14 10
M  V30 12 1 16 14
M  V30 13 1 17 1
M  V30 14 1 17 9
M  V30 15 2 17 16
M  V30 16 1 18 8
M  V30 17 1 18 10
M  V30 18 1 19 11
M  V30 19 1 19 13
M  V30 20 1 19 15
M  V30 21 1 1 20 CFG=1
M  V30 22 1 21 3
M  V30 23 1 22 3
M  V30 24 1 23 4
M  V30 25 1 24 4
M  V30 26 1 25 6
M  V30 27 1 8 26 CFG=3
M  V30 28 1 27 9
M  V30 29 1 28 9
M  V30 30 1 11 29 CFG=1
M  V30 31 1 13 30 CFG=1
M  V30 32 1 31 15
M  V30 33 1 32 15
M  V30 34 1 33 15
M  V30 35 1 34 18
M  V30 36 1 35 18
M  V30 37 1 19 36 CFG=3
M  V30 END BOND
M  V30 END CTAB
M  END
>  <i_epik_Tot_Q>  (1) 
-1

>  <i_epik_Tot_abs_Q>  (1) 
1

>  <i_i_glide_confnum>  (1) 
5

>  <i_i_glide_lignum>  (1) 
162

>  <i_i_glide_posenum>  (1) 
234

>  <i_i_glide_rotatable_bonds>  (1) 
3

>  <i_lp_mmshare_version>  (1) 
72125

>  <i_m_source_file_index>  (1) 
89

>  <i_f3d_flags>  (1) 
0

>  <num_sample>  (1) 
100

>  <b_lp_Chiralities_Consistent>  (1) 
1

>  <r_epik_Charging_Adjusted_Penalty>  (1) 
1.6999520965461032

>  <r_epik_Ionization_Penalty>  (1) 
0.8499760961676609

>  <r_epik_Ionization_Penalty_Charging>  (1) 
0.84997604827305151

>  <r_epik_Ionization_Penalty_Neutral>  (1) 
4.7894609424591191e-08

>  <r_epik_State_Penalty>  (1) 
0.84997604827305173

>  <r_glide_ring_energy>  (1) 
0.069252999385487041

>  <r_i_docking_score>  (1) 
-3.5519642816889934

>  <r_i_glide_ecoul>  (1) 
-0.61733553215991455

>  <r_i_glide_eff_state_penalty>  (1) 
0.84997604827305173

>  <r_i_glide_einternal>  (1) 
1.6040389196334286

>  <r_i_glide_emodel>  (1) 
-32.177430256749147

>  <r_i_glide_emodel_strain>  (1) 
1.196744150705328

>  <r_i_glide_energy>  (1) 
-27.978194445011162

>  <r_i_glide_erotb>  (1) 
0.4743209619600951

>  <r_i_glide_esite>  (1) 
-0.17053234132929396

>  <r_i_glide_evdw>  (1) 
-27.360858912851249

>  <r_i_glide_gscore>  (1) 
-4.401940329962045

>  <r_i_glide_gscore_strain>  (1) 
0

>  <r_i_glide_hbond>  (1) 
0

>  <r_i_glide_ligand_efficiency>  (1) 
-0.18694548850994702

>  <r_i_glide_ligand_efficiency_ln>  (1) 
-0.90049923460588388

>  <r_i_glide_ligand_efficiency_sa>  (1) 
-0.4988456497610721

>  <r_i_glide_lipo>  (1) 
-0.82123009489745213

>  <r_i_glide_metal>  (1) 
-0

>  <r_i_glide_rewards>  (1) 
-2.4238555802288442

>  <r_lp_Energy>  (1) 
36.246699999999997

>  <s_epik_Chemistry_Notes>  (1) 
This compound has an imine and may undergo hydrolysis.

>  <s_epik_cmdline>  (1) 
J2VwaWtfcHl0aG9uJywgJy1waHQnLCAnMS4wJywgJy1waCcsICc3LjQnLCAnLXRuJywgJzgnLCAnLW1hJywgJzUwMCcsICctaW1hZScsICc8aW5maWxlLm1hZT4nLCAnLW9tYWUnLCAnPG91dGZpbGUubWFlPic=

>  <s_epik_input>  (1) 
W09IXVtDQEhdMVtDQEBIXShGKVtDQEBIXShbQ0gzXSlbQ0BASF0oRilbQ0gyXUNcMT1OXEMoPU8pTihbQ0gyXTIpW0NIMl1bQ0gyXVtDQEBIXTJbT0hd

>  <s_glide_docking_method>  (1) 
confgen

>  <s_i_glide_gridfile>  (1) 
gpcr_drd2_6luq_protein_autoprepared_prepared

>  <s_lp_Force_Field>  (1) 
S-OPLS

>  <s_lp_Variant>  (1) 
DiffSBDD_88-3

>  <s_m_source_file>  (1) 
generated_generic_title2_ligand_DiffSBDD_2026-06-23_prepared.sdf

>  <GenAI_Model>  (1) 
DiffSBDD

>  <Protein>  (1) 
generic_title2

$$$$
DiffSBDD_48
     RDKit          3D

  0  0  0  0  0  0  0  0  0  0999 V3000
M  V30 BEGIN CTAB
M  V30 COUNTS 50 51 0 0 1
M  V30 BEGIN ATOM
M  V30 1 C 4.819496 5.709327 -22.273170 0
M  V30 2 S 6.374151 4.070611 -12.434263 0
M  V30 3 O 3.771934 5.864158 -22.785019 0
M  V30 4 N 9.763693 6.323119 -8.177921 0
M  V30 5 C 6.095572 6.391070 -17.062673 0
M  V30 6 C 7.921844 4.805877 -16.726530 0
M  V30 7 O 5.375409 4.242608 -11.371869 0
M  V30 8 C 9.078527 7.913857 -21.422655 0
M  V30 9 O 6.836664 6.732507 -19.752476 0
M  V30 10 O 6.431945 2.876556 -13.290094 0
M  V30 11 N 6.271524 5.473611 -13.449934 0
M  V30 12 C 7.833120 6.828637 -12.097833 0
M  V30 13 C 6.828693 6.691415 -21.180612 0 CFG=2
M  V30 14 C 5.803198 6.347566 -15.685162 0
M  V30 15 C 9.775659 7.165132 -7.223584 0
M  V30 16 N 7.924357 4.390491 -11.781765 0
M  V30 17 C 6.568048 5.528299 -14.823994 0
M  V30 18 C 7.470401 5.652876 -19.071280 0
M  V30 19 C 5.987975 5.534970 -21.701983 0
M  V30 20 C 7.630567 4.760820 -15.350472 0
M  V30 21 C 6.441532 6.745661 -12.752534 0
M  V30 22 O 9.963062 7.967506 -9.841194 0
M  V30 23 C 7.156033 5.618632 -17.585486 0
M  V30 24 C 9.775415 6.799683 -9.482950 0
M  V30 25 C 9.534380 5.705405 -10.527258 0
M  V30 26 C 8.109949 5.674390 -11.100313 0 CFG=1
M  V30 27 C 8.243060 6.683821 -21.797112 0
M  V30 28 H 5.504933 7.014688 -17.717489 0
M  V30 29 H 8.732898 4.213705 -17.124644 0
M  V30 30 H 10.039929 7.901697 -21.936165 0
M  V30 31 H 8.568766 8.838578 -21.694296 0
M  V30 32 H 9.280113 7.941005 -20.353665 0
M  V30 33 H 8.595101 6.835344 -12.877737 0
M  V30 34 H 7.915161 7.787227 -11.585523 0
M  V30 35 H 6.345048 7.620506 -21.489325 0
M  V30 36 H 4.989645 6.936952 -15.289846 0
M  V30 37 H 9.779852 6.822284 -6.185521 0
M  V30 38 H 9.780282 8.242686 -7.417516 0
M  V30 39 H 8.677714 4.133019 -12.417107 0
M  V30 40 H 7.164305 4.689783 -19.478249 0
M  V30 41 H 8.550919 5.727402 -19.195616 0
M  V30 42 H 6.401904 4.545333 -21.581594 0
M  V30 43 H 8.220785 4.134733 -14.698770 0
M  V30 44 H 6.297083 7.590224 -13.420256 0
M  V30 45 H 5.672670 6.832925 -11.983211 0
M  V30 46 H 9.775168 4.737767 -10.082633 0
M  V30 47 H 10.226979 5.851864 -11.353654 0
M  V30 48 H 7.390131 5.719334 -10.281431 0
M  V30 49 H 8.780740 5.776218 -21.522391 0
M  V30 50 H 8.151406 6.653975 -22.883713 0
M  V30 END ATOM
M  V30 BEGIN BOND
M  V30 1 2 3 1
M  V30 2 2 7 2
M  V30 3 2 10 2
M  V30 4 1 11 2
M  V30 5 1 13 9
M  V30 6 2 14 5
M  V30 7 2 15 4
M  V30 8 1 16 2
M  V30 9 1 17 11
M  V30 10 1 17 14
M  V30 11 1 18 9
M  V30 12 2 19 1
M  V30 13 1 19 13
M  V30 14 1 20 6
M  V30 15 2 20 17
M  V30 16 1 21 11
M  V30 17 1 21 12
M  V30 18 1 23 5
M  V30 19 2 23 6
M  V30 20 1 23 18
M  V30 21 1 24 4
M  V30 22 2 24 22
M  V30 23 1 25 24
M  V30 24 1 26 12
M  V30 25 1 26 16
M  V30 26 1 26 25
M  V30 27 1 27 8
M  V30 28 1 27 13
M  V30 29 1 28 5
M  V30 30 1 29 6
M  V30 31 1 30 8
M  V30 32 1 31 8
M  V30 33 1 32 8
M  V30 34 1 33 12
M  V30 35 1 34 12
M  V30 36 1 13 35 CFG=3
M  V30 37 1 36 14
M  V30 38 1 37 15
M  V30 39 1 38 15
M  V30 40 1 39 16
M  V30 41 1 40 18
M  V30 42 1 41 18
M  V30 43 1 42 19
M  V30 44 1 43 20
M  V30 45 1 44 21
M  V30 46 1 45 21
M  V30 47 1 46 25
M  V30 48 1 47 25
M  V30 49 1 26 48 CFG=1
M  V30 50 1 49 27
M  V30 51 1 50 27
M  V30 END BOND
M  V30 END CTAB
M  END
>  <i_epik_Tot_Q>  (1) 
0

>  <i_epik_Tot_abs_Q>  (1) 
0

>  <i_i_glide_confnum>  (1) 
194

>  <i_i_glide_lignum>  (1) 
77

>  <i_i_glide_posenum>  (1) 
87

>  <i_i_glide_rotatable_bonds>  (1) 
9

>  <i_lp_mmshare_version>  (1) 
72125

>  <i_m_source_file_index>  (1) 
49

>  <i_f3d_flags>  (1) 
0

>  <num_sample>  (1) 
100

>  <b_lp_Chiralities_Consistent>  (1) 
1

>  <r_epik_Charging_Adjusted_Penalty>  (1) 
0.28919108410989852

>  <r_epik_Ionization_Penalty>  (1) 
0.28919108415051159

>  <r_epik_Ionization_Penalty_Charging>  (1) 
0

>  <r_epik_Ionization_Penalty_Neutral>  (1) 
0.28919108415051159

>  <r_epik_State_Penalty>  (1) 
0.28919108410989852

>  <r_glide_ring_energy>  (1) 
0

>  <r_i_docking_score>  (1) 
-3.5500217198777158

>  <r_i_glide_ecoul>  (1) 
-2.2097819546497113

>  <r_i_glide_eff_state_penalty>  (1) 
0.28919108410989852

>  <r_i_glide_einternal>  (1) 
3.1288737433908969

>  <r_i_glide_emodel>  (1) 
-45.343438144195048

>  <r_i_glide_emodel_strain>  (1) 
0.089806595599881689

>  <r_i_glide_energy>  (1) 
-38.618083674898095

>  <r_i_glide_erotb>  (1) 
1.0094699416249397

>  <r_i_glide_esite>  (1) 
-0.14173218942276189

>  <r_i_glide_evdw>  (1) 
-36.408301720248382

>  <r_i_glide_gscore>  (1) 
-3.8392128039876141

>  <r_i_glide_gscore_strain>  (1) 
0

>  <r_i_glide_hbond>  (1) 
-0.19199313238293464

>  <r_i_glide_ligand_efficiency>  (1) 
-0.13148228592139688

>  <r_i_glide_ligand_efficiency_ln>  (1) 
-0.8263865297053713

>  <r_i_glide_ligand_efficiency_sa>  (1) 
-0.39444685776419069

>  <r_i_glide_lipo>  (1) 
-1.1355941286533944

>  <r_i_glide_metal>  (1) 
-0

>  <r_i_glide_rewards>  (1) 
-1.227480915943588

>  <r_lp_Energy>  (1) 
31.284617999999998

>  <s_epik_Chemistry_Notes>  (1) 
This compound has an imine and may undergo hydrolysis.

>  <s_epik_cmdline>  (1) 
J2VwaWtfcHl0aG9uJywgJy1waHQnLCAnMS4wJywgJy1waCcsICc3LjQnLCAnLXRuJywgJzgnLCAnLW1hJywgJzUwMCcsICctaW1hZScsICc8aW5maWxlLm1hZT4nLCAnLW9tYWUnLCAnPG91dGZpbGUubWFlPic=

>  <s_epik_input>  (1) 
Tz1DPVtDSF1bQ0BIXShbQ0gyXVtDSDNdKU9bQ0gyXWMoW2NIXVtjSF0xKVtjSF1bY0hdYzFOKFMyKD1PKT1PKVtDSDJdW0NIMl1bQ0BASF0oW05IXTIpW0NIMl1DKD1PKU49W0NIMl0=

>  <s_glide_docking_method>  (1) 
confgen

>  <s_i_glide_gridfile>  (1) 
gpcr_drd2_6luq_protein_autoprepared_prepared

>  <s_lp_Force_Field>  (1) 
S-OPLS

>  <s_lp_Variant>  (1) 
DiffSBDD_48-1

>  <s_m_source_file>  (1) 
generated_generic_title2_ligand_DiffSBDD_2026-06-23_prepared.sdf

>  <GenAI_Model>  (1) 
DiffSBDD

>  <Protein>  (1) 
generic_title2

$$$$
DiffSBDD_45
     RDKit          3D

  0  0  0  0  0  0  0  0  0  0999 V3000
M  V30 BEGIN CTAB
M  V30 COUNTS 68 71 0 0 1
M  V30 BEGIN ATOM
M  V30 1 C 10.344782 7.217796 -7.502548 0 CFG=2
M  V30 2 C 11.820127 8.495954 -2.585330 0
M  V30 3 C 8.057075 2.482120 -15.057281 0 CFG=2
M  V30 4 C 9.903377 7.719372 -8.897783 0
M  V30 5 C 10.330885 8.258605 -6.342975 0 CFG=2
M  V30 6 C 6.687114 -0.202576 -13.917919 0
M  V30 7 C 9.374965 5.388497 -9.741856 0
M  V30 8 O 11.680022 6.789594 -7.517066 0
M  V30 9 C 10.975300 7.873534 -4.954368 0
M  V30 10 N 6.975574 1.654063 -15.600447 0
M  V30 11 C 6.175039 -0.418535 -16.377451 0
M  V30 12 C 8.613136 5.994581 -13.248697 0
M  V30 13 C 8.935165 6.151604 -11.955033 0
M  V30 14 C 8.919844 3.848933 -11.634638 0
M  V30 15 C 6.178937 0.543541 -17.552497 0
M  V30 16 N 9.133405 5.099837 -11.125798 0
M  V30 17 O 6.396021 4.706845 -15.186059 0
M  V30 18 C 7.104518 0.214769 -15.340290 0 CFG=2
M  V30 19 N 8.486260 4.715463 -13.814322 0
M  V30 20 O 8.955676 8.420178 -6.211876 0
M  V30 21 C 6.980452 1.746469 -17.060988 0
M  V30 22 C 12.767894 9.599570 -4.584570 0
M  V30 23 C 11.478756 9.001592 -4.014120 0
M  V30 24 C 9.088547 7.449099 -11.272652 0
M  V30 25 C 11.775542 5.580555 -6.785005 0
M  V30 26 C 8.251880 2.314861 -13.523091 0
M  V30 27 C 9.488342 6.906025 -9.883120 0
M  V30 28 O 8.674192 4.826845 -16.369720 0
M  V30 29 S 7.806735 4.316199 -15.297159 0
M  V30 30 C 8.586982 3.642072 -12.921184 0
M  V30 31 C 9.930694 9.190220 -9.101133 0
M  V30 32 H 9.659716 6.396801 -7.266885 0
M  V30 33 H 12.534881 7.673620 -2.629152 0
M  V30 34 H 12.283130 9.289371 -1.996068 0
M  V30 35 H 10.975890 8.154805 -1.985005 0
M  V30 36 H 8.975121 2.225261 -15.584914 0
M  V30 37 H 10.786936 9.192826 -6.661841 0
M  V30 38 H 6.575425 -1.266424 -13.868064 0
M  V30 39 H 7.432737 -0.009955 -13.153224 0
M  V30 40 H 5.739321 0.242979 -13.612413 0
M  V30 41 H 10.219150 4.885805 -9.300450 0
M  V30 42 H 8.484123 5.141524 -9.163256 0
M  V30 43 H 10.337513 7.158113 -4.440251 0
M  V30 44 H 11.893381 7.328911 -5.099670 0
M  V30 45 H 5.162681 -0.511568 -15.982056 0
M  V30 46 H 6.507646 -1.415417 -16.659560 0
M  V30 47 H 8.427322 6.804154 -13.929377 0
M  V30 48 H 9.007194 3.064627 -10.920124 0
M  V30 49 H 5.160991 0.820021 -17.823363 0
M  V30 50 H 6.644174 0.101350 -18.432828 0
M  V30 51 H 8.128401 -0.106419 -15.542263 0
M  V30 52 H 8.510856 7.593632 -6.348819 0
M  V30 53 H 6.575178 2.693924 -17.417393 0
M  V30 54 H 7.999401 1.662869 -17.441961 0
M  V30 55 H 13.516810 8.845279 -4.784687 0
M  V30 56 H 12.585558 10.160851 -5.500766 0
M  V30 57 H 13.243176 10.250488 -3.857610 0
M  V30 58 H 10.732812 9.792187 -3.938252 0
M  V30 59 H 8.157029 8.009012 -11.265820 0
M  V30 60 H 9.887468 8.031187 -11.732406 0
M  V30 61 H 12.793499 5.343809 -6.493337 0
M  V30 62 H 11.184080 5.589984 -5.875630 0
M  V30 63 H 11.375391 4.791199 -7.415353 0
M  V30 64 H 8.981325 1.553516 -13.250314 0
M  V30 65 H 7.299527 2.094474 -13.042744 0
M  V30 66 H 10.945793 9.590272 -9.092507 0
M  V30 67 H 9.376822 9.499698 -9.984534 0
M  V30 68 H 9.294331 9.590108 -8.321894 0
M  V30 END ATOM
M  V30 BEGIN BOND
M  V30 1 1 4 1
M  V30 2 1 5 1
M  V30 3 1 8 1
M  V30 4 1 9 5
M  V30 5 1 10 3
M  V30 6 2 13 12
M  V30 7 1 15 11
M  V30 8 1 16 7
M  V30 9 1 16 13
M  V30 10 1 16 14
M  V30 11 1 18 6
M  V30 12 1 18 10
M  V30 13 1 18 11
M  V30 14 1 19 12
M  V30 15 1 20 5
M  V30 16 1 21 10
M  V30 17 1 21 15
M  V30 18 1 23 2
M  V30 19 1 23 9
M  V30 20 1 23 22
M  V30 21 1 24 13
M  V30 22 1 25 8
M  V30 23 1 26 3
M  V30 24 2 27 4
M  V30 25 1 27 7
M  V30 26 1 27 24
M  V30 27 1 29 3
M  V30 28 2 29 17
M  V30 29 1 29 19
M  V30 30 2 29 28
M  V30 31 2 30 14
M  V30 32 1 30 19
M  V30 33 1 30 26
M  V30 34 1 31 4
M  V30 35 1 1 32 CFG=1
M  V30 36 1 33 2
M  V30 37 1 34 2
M  V30 38 1 35 2
M  V30 39 1 3 36 CFG=3
M  V30 40 1 5 37 CFG=3
M  V30 41 1 38 6
M  V30 42 1 39 6
M  V30 43 1 40 6
M  V30 44 1 41 7
M  V30 45 1 42 7
M  V30 46 1 43 9
M  V30 47 1 44 9
M  V30 48 1 45 11
M  V30 49 1 46 11
M  V30 50 1 47 12
M  V30 51 1 48 14
M  V30 52 1 49 15
M  V30 53 1 50 15
M  V30 54 1 18 51 CFG=3
M  V30 55 1 52 20
M  V30 56 1 53 21
M  V30 57 1 54 21
M  V30 58 1 55 22
M  V30 59 1 56 22
M  V30 60 1 57 22
M  V30 61 1 58 23
M  V30 62 1 59 24
M  V30 63 1 60 24
M  V30 64 1 61 25
M  V30 65 1 62 25
M  V30 66 1 63 25
M  V30 67 1 64 26
M  V30 68 1 65 26
M  V30 69 1 66 31
M  V30 70 1 67 31
M  V30 71 1 68 31
M  V30 END BOND
M  V30 END CTAB
M  END
>  <i_epik_Tot_Q>  (1) 
0

>  <i_epik_Tot_abs_Q>  (1) 
0

>  <i_i_glide_confnum>  (1) 
56

>  <i_i_glide_lignum>  (1) 
74

>  <i_i_glide_posenum>  (1) 
273

>  <i_i_glide_rotatable_bonds>  (1) 
7

>  <i_lp_mmshare_version>  (1) 
72125

>  <i_m_source_file_index>  (1) 
46

>  <i_f3d_flags>  (1) 
0

>  <num_sample>  (1) 
100

>  <b_lp_Chiralities_Consistent>  (1) 
1

>  <r_epik_Charging_Adjusted_Penalty>  (1) 
5.5386030856760706e-14

>  <r_epik_Ionization_Penalty>  (1) 
0.0003901755545231811

>  <r_epik_Ionization_Penalty_Charging>  (1) 
5.5386030856760706e-14

>  <r_epik_Ionization_Penalty_Neutral>  (1) 
0.00039017555446779507

>  <r_epik_State_Penalty>  (1) 
-0

>  <r_glide_ring_energy>  (1) 
0

>  <r_i_docking_score>  (1) 
-3.544300286774877

>  <r_i_glide_ecoul>  (1) 
-3.0184309717463607

>  <r_i_glide_eff_state_penalty>  (1) 
-0

>  <r_i_glide_einternal>  (1) 
9.7202791490035025

>  <r_i_glide_emodel>  (1) 
-6.5222559858647795

>  <r_i_glide_emodel_strain>  (1) 
2.6878896386942444

>  <r_i_glide_energy>  (1) 
-9.3455591255827066

>  <r_i_glide_erotb>  (1) 
0.39335991316148761

>  <r_i_glide_esite>  (1) 
0

>  <r_i_glide_evdw>  (1) 
-6.3271281538363455

>  <r_i_glide_gscore>  (1) 
-3.544300286774877

>  <r_i_glide_gscore_strain>  (1) 
0

>  <r_i_glide_hbond>  (1) 
0

>  <r_i_glide_ligand_efficiency>  (1) 
-0.11433226731531861

>  <r_i_glide_ligand_efficiency_ln>  (1) 
-0.79934833442678477

>  <r_i_glide_ligand_efficiency_sa>  (1) 
-0.35916117248838281

>  <r_i_glide_lipo>  (1) 
-2.2393168854425567

>  <r_i_glide_metal>  (1) 
-0

>  <r_i_glide_rewards>  (1) 
-0.92922226104003713

>  <r_lp_Energy>  (1) 
32.319353999999997

>  <r_lp_tautomer_probability>  (1) 
1

>  <s_epik_Chemistry_Notes>  (1) 
This compound has an imine and may undergo hydrolysis.

>  <s_epik_cmdline>  (1) 
J2VwaWtfcHl0aG9uJywgJy1waHQnLCAnMS4wJywgJy1waCcsICc3LjQnLCAnLXRuJywgJzgnLCAnLW1hJywgJzUwMCcsICctaW1hZScsICc8aW5maWxlLm1hZT4nLCAnLW9tYWUnLCAnPG91dGZpbGUubWFlPic=

>  <s_epik_input>  (1) 
W0NIM11bQ0hdKFtDSDNdKVtDSDJdW0NASF0oW09IXSlbQ0BIXShPW0NIM10pL0MoW0NIM10pPUMoW0NIMl0xKVxbQ0gyXU4oQzEyKVtDSF09QzNOKFtDSF09MilTKD1PKSg9TylbQ0BASF0oW0NIMl0zKU40W0NAQEhdKFtDSDNdKVtDSDJdW0NIMl1bQ0gyXTQ=

>  <s_glide_docking_method>  (1) 
confgen

>  <s_i_glide_gridfile>  (1) 
gpcr_drd2_6luq_protein_autoprepared_prepared

>  <s_lp_Force_Field>  (1) 
S-OPLS

>  <s_lp_Variant>  (1) 
DiffSBDD_45-2

>  <s_m_source_file>  (1) 
generated_generic_title2_ligand_DiffSBDD_2026-06-23_prepared.sdf

>  <GenAI_Model>  (1) 
DiffSBDD

>  <Protein>  (1) 
generic_title2

$$$$
DiffSBDD_80
     RDKit          3D

  0  0  0  0  0  0  0  0  0  0999 V3000
M  V30 BEGIN CTAB
M  V30 COUNTS 80 86 0 0 1
M  V30 BEGIN ATOM
M  V30 1 C 11.829717 4.579125 -18.339214 0
M  V30 2 C 4.873094 -0.414008 -17.747884 0
M  V30 3 C 9.980191 1.176583 -20.225145 0
M  V30 4 O 6.840424 -0.808149 -16.427631 0
M  V30 5 N 15.147212 5.836904 -16.110138 0 CHG=1
M  V30 6 C 11.196529 -0.751908 -21.810558 0
M  V30 7 C 11.288920 1.403287 -20.696405 0
M  V30 8 C 6.270786 -0.961708 -17.503271 0
M  V30 9 C 13.400896 2.677705 -20.135011 0
M  V30 10 C 14.943833 6.139137 -18.931079 0 CFG=2
M  V30 11 C 15.535884 4.634169 -16.849556 0 CFG=2
M  V30 12 C 6.947868 -0.819057 -19.932005 0 CFG=2
M  V30 13 C 12.557595 7.116129 -18.731731 0 CFG=2
M  V30 14 O 10.469611 6.205404 -19.424264 0
M  V30 15 C 5.552245 -0.209011 -20.227282 0
M  V30 16 C 6.935027 -1.698013 -18.662557 0
M  V30 17 N 9.194710 1.928265 -19.456958 0
M  V30 18 O 13.150927 7.771659 -21.060239 0
M  V30 19 C 13.901750 6.478498 -16.585370 0
M  V30 20 C 11.902646 0.427486 -21.503014 0
M  V30 21 O 14.554292 8.263083 -17.977676 0
M  V30 22 C 11.199614 3.284327 -18.932991 0 CFG=2
M  V30 23 C 8.949219 4.319804 -19.887110 0
M  V30 24 C 11.863077 2.746437 -20.237353 0 CFG=2
M  V30 25 C 9.881872 -0.941067 -21.312666 0
M  V30 26 O 16.728978 4.390534 -16.384762 0 CHG=-1
M  V30 27 C 8.083180 0.196874 -19.905483 0
M  V30 28 C 13.982158 6.964819 -18.071037 0 CFG=1
M  V30 29 C 9.332472 0.097551 -20.516036 0
M  V30 30 N 7.891241 1.346622 -19.195181 0
M  V30 31 C 9.087808 3.426976 -17.532701 0
M  V30 32 C 4.853638 0.454816 -19.019142 0
M  V30 33 C 15.689683 4.969732 -18.318774 0 CFG=2
M  V30 34 C 11.828739 5.823756 -19.243798 0 CFG=2
M  V30 35 C 9.634109 3.247463 -18.976713 0 CFG=1
M  V30 36 C 9.127020 -2.217302 -21.636102 0
M  V30 37 O 16.333988 6.215676 -18.571784 0
M  V30 38 C 12.501941 8.183220 -19.873313 0
M  V30 39 C 9.780485 5.491483 -20.436137 0
M  V30 40 H 12.853935 4.337105 -18.076734 0
M  V30 41 H 11.356470 4.826793 -17.392370 0
M  V30 42 H 4.178815 -1.248946 -17.843976 0
M  V30 43 H 6.354827 -2.602380 -18.847185 0
M  V30 44 H 4.576581 0.159575 -16.871835 0
M  V30 45 H 15.917237 6.475460 -16.245215 0
M  V30 46 H 11.658272 -1.511883 -22.424462 0
M  V30 47 H 13.854046 2.374250 -21.077616 0
M  V30 48 H 13.833677 3.650070 -19.915770 0
M  V30 49 H 13.722867 1.976956 -19.362808 0
M  V30 50 H 14.786894 6.142459 -20.005451 0
M  V30 51 H 14.723949 3.911164 -16.763058 0
M  V30 52 H 7.031409 -1.476452 -20.778213 0
M  V30 53 H 11.933356 7.519310 -17.935189 0
M  V30 54 H 5.608155 0.487921 -21.064565 0
M  V30 55 H 4.908505 -1.023199 -20.562928 0
M  V30 56 H 7.943542 -2.010446 -18.390843 0
M  V30 57 H 13.077807 8.463148 -21.701611 0
M  V30 58 H 13.671703 7.312332 -15.921343 0
M  V30 59 H 13.097608 5.770057 -16.417492 0
M  V30 60 H 12.902691 0.575258 -21.881073 0
M  V30 61 H 13.890285 8.883087 -17.708022 0
M  V30 62 H 11.460685 2.527417 -18.188918 0
M  V30 63 H 8.095268 4.747132 -19.357192 0
M  V30 64 H 8.493266 3.834828 -20.753315 0
M  V30 65 H 11.641571 3.428764 -21.053375 0
M  V30 66 H 9.255610 4.432892 -17.151339 0
M  V30 67 H 8.009729 3.271712 -17.474563 0
M  V30 68 H 9.547271 2.722526 -16.838622 0
M  V30 69 H 3.820593 0.680144 -19.285539 0
M  V30 70 H 5.311566 1.419887 -18.803472 0
M  V30 71 H 16.011683 4.161760 -18.973574 0
M  V30 72 H 12.288131 5.549445 -20.192289 0
M  V30 73 H 9.793424 -2.932096 -22.117260 0
M  V30 74 H 8.763626 -2.714334 -20.737881 0
M  V30 75 H 8.320672 -2.030535 -22.345293 0
M  V30 76 H 12.933048 9.140820 -19.582851 0
M  V30 77 H 11.463301 8.399870 -20.124587 0
M  V30 78 H 9.087247 6.199227 -20.891621 0
M  V30 79 H 10.428961 5.188918 -21.255998 0
M  V30 80 H 15.085696 5.596641 -15.130902 0
M  V30 END ATOM
M  V30 BEGIN BOND
M  V30 1 2 7 3
M  V30 2 1 8 2
M  V30 3 2 8 4
M  V30 4 1 11 5
M  V30 5 1 15 12
M  V30 6 1 16 8
M  V30 7 1 16 12
M  V30 8 1 17 3
M  V30 9 1 19 5
M  V30 10 2 20 6
M  V30 11 1 20 7
M  V30 12 1 22 1
M  V30 13 1 24 7
M  V30 14 1 24 9
M  V30 15 1 24 22
M  V30 16 1 25 6
M  V30 17 1 26 11
M  V30 18 1 27 12
M  V30 19 1 28 10
M  V30 20 1 28 13
M  V30 21 1 28 19
M  V30 22 1 28 21 CFG=1
M  V30 23 1 29 3
M  V30 24 2 29 25
M  V30 25 1 29 27
M  V30 26 1 30 17
M  V30 27 2 30 27
M  V30 28 1 32 2
M  V30 29 1 32 15
M  V30 30 1 33 10
M  V30 31 1 33 11
M  V30 32 1 34 1
M  V30 33 1 34 13
M  V30 34 1 34 14
M  V30 35 1 35 17
M  V30 36 1 35 22
M  V30 37 1 35 23
M  V30 38 1 35 31 CFG=1
M  V30 39 1 36 25
M  V30 40 1 37 10
M  V30 41 1 37 33
M  V30 42 1 38 13
M  V30 43 1 38 18
M  V30 44 1 39 14
M  V30 45 1 39 23
M  V30 46 1 40 1
M  V30 47 1 41 1
M  V30 48 1 42 2
M  V30 49 1 43 16
M  V30 50 1 44 2
M  V30 51 1 45 5
M  V30 52 1 46 6
M  V30 53 1 47 9
M  V30 54 1 48 9
M  V30 55 1 49 9
M  V30 56 1 10 50 CFG=3
M  V30 57 1 11 51 CFG=3
M  V30 58 1 12 52 CFG=3
M  V30 59 1 13 53 CFG=1
M  V30 60 1 54 15
M  V30 61 1 55 15
M  V30 62 1 56 16
M  V30 63 1 57 18
M  V30 64 1 58 19
M  V30 65 1 59 19
M  V30 66 1 60 20
M  V30 67 1 61 21
M  V30 68 1 22 62 CFG=1
M  V30 69 1 63 23
M  V30 70 1 64 23
M  V30 71 1 24 65 CFG=3
M  V30 72 1 66 31
M  V30 73 1 67 31
M  V30 74 1 68 31
M  V30 75 1 69 32
M  V30 76 1 70 32
M  V30 77 1 33 71 CFG=3
M  V30 78 1 34 72 CFG=3
M  V30 79 1 73 36
M  V30 80 1 74 36
M  V30 81 1 75 36
M  V30 82 1 76 38
M  V30 83 1 77 38
M  V30 84 1 78 39
M  V30 85 1 79 39
M  V30 86 1 80 5
M  V30 END BOND
M  V30 END CTAB
M  END
>  <i_epik_Tot_Q>  (1) 
0

>  <i_epik_Tot_abs_Q>  (1) 
2

>  <i_i_glide_confnum>  (1) 
100

>  <i_i_glide_lignum>  (1) 
139

>  <i_i_glide_posenum>  (1) 
88

>  <i_i_glide_rotatable_bonds>  (1) 
6

>  <i_lp_mmshare_version>  (1) 
72125

>  <i_m_source_file_index>  (1) 
81

>  <i_f3d_flags>  (1) 
0

>  <num_sample>  (1) 
100

>  <b_lp_Chiralities_Consistent>  (1) 
1

>  <r_epik_Charging_Adjusted_Penalty>  (1) 
0.19389291401224384

>  <r_epik_Ionization_Penalty>  (1) 
0.092004943806736766

>  <r_epik_Ionization_Penalty_Charging>  (1) 
0.091964506543683239

>  <r_epik_Ionization_Penalty_Neutral>  (1) 
4.0437263053531681e-05

>  <r_epik_State_Penalty>  (1) 
0.10192840746856062

>  <r_glide_ring_energy>  (1) 
1.9915023196562252

>  <r_i_docking_score>  (1) 
-3.5419309072233731

>  <r_i_glide_ecoul>  (1) 
-8.305681423727119

>  <r_i_glide_eff_state_penalty>  (1) 
0.10192840746856062

>  <r_i_glide_einternal>  (1) 
9.3235559845304365

>  <r_i_glide_emodel>  (1) 
-31.870253497976037

>  <r_i_glide_emodel_strain>  (1) 
0.15289536239120594

>  <r_i_glide_energy>  (1) 
-30.675794052617775

>  <r_i_glide_erotb>  (1) 
0.19871393705319862

>  <r_i_glide_esite>  (1) 
-0.0047557822645769637

>  <r_i_glide_evdw>  (1) 
-22.370112628890656

>  <r_i_glide_gscore>  (1) 
-3.6438593146919338

>  <r_i_glide_gscore_strain>  (1) 
0

>  <r_i_glide_hbond>  (1) 
-0.16

>  <r_i_glide_ligand_efficiency>  (1) 
-0.090818741210855716

>  <r_i_glide_ligand_efficiency_ln>  (1) 
-0.75949053019656554

>  <r_i_glide_ligand_efficiency_sa>  (1) 
-0.30798555443439624

>  <r_i_glide_lipo>  (1) 
-0.72017136879654398

>  <r_i_glide_metal>  (1) 
-0

>  <r_i_glide_rewards>  (1) 
-0.59328825568041044

>  <r_lp_Energy>  (1) 
36.052596000000001

>  <r_lp_tautomer_probability>  (1) 
0.99999997999999979

>  <s_epik_Chemistry_Notes>  (1) 
This compound contains an acetal/aminal-like group ( X-CH(R)-Y where X, Y are N, S, or O) that may be acid/base labile, releasing an aldehyde.

>  <s_epik_cmdline>  (1) 
J2VwaWtfcHl0aG9uJywgJy1waHQnLCAnMS4wJywgJy1waCcsICc3LjQnLCAnLXRuJywgJzgnLCAnLW1hJywgJzUwMCcsICctaW1hZScsICc8aW5maWxlLm1hZT4nLCAnLW9tYWUnLCAnPG91dGZpbGUubWFlPic=

>  <s_epik_input>  (1) 
W0NASF0xMltDQEBIXShPMilbQ0BASF0oW09IXSlbTkhdW0NIMl1bQ0BdMShbT0hdKVtDQEBIXShbQ0gyXVtPSF0pW0NASF0oT1tDSDJdW0NIMl0zKVtDSDJdW0NAQEhdNFtDQEBIXShbQ0gzXSljKGM1bjZbQ0BdMzRbQ0gzXSlbY0hdW2NIXWMoW0NIM10pYzVjKG42KVtDQEhdKFtDSDJdW0NIMl1bQ0gyXTcpW0NIXT1DN1tPSF0=

>  <s_glide_docking_method>  (1) 
confgen

>  <s_i_glide_gridfile>  (1) 
gpcr_drd2_6luq_protein_autoprepared_prepared

>  <s_lp_Force_Field>  (1) 
S-OPLS

>  <s_lp_Variant>  (1) 
DiffSBDD_80-1

>  <s_m_source_file>  (1) 
generated_generic_title2_ligand_DiffSBDD_2026-06-23_prepared.sdf

>  <GenAI_Model>  (1) 
DiffSBDD

>  <Protein>  (1) 
generic_title2

$$$$
DiffSBDD_8
     RDKit          3D

  0  0  0  0  0  0  0  0  0  0999 V3000
M  V30 BEGIN CTAB
M  V30 COUNTS 61 63 0 0 1
M  V30 BEGIN ATOM
M  V30 1 C 9.345280 5.068224 -10.679542 0
M  V30 2 O 11.182425 7.600900 -7.142165 0
M  V30 3 C 6.530853 0.600942 -15.264828 0
M  V30 4 N 8.975413 7.598437 -6.785030 0
M  V30 5 C 7.902566 5.093242 -15.858248 0 CFG=2
M  V30 6 C 7.014896 2.951561 -13.773477 0
M  V30 7 N 10.985487 7.590221 -9.835393 0 CHG=1
M  V30 8 C 7.019014 6.203434 -19.366458 0
M  V30 9 C 6.636391 3.806748 -18.580022 0
M  V30 10 O 9.109697 4.737471 -17.832664 0
M  V30 11 C 7.336457 1.620517 -15.801500 0
M  V30 12 C 5.746031 6.374217 -20.207350 0
M  V30 13 O 8.377002 3.783876 -15.607903 0
M  V30 14 S 6.786114 4.119200 -11.209349 0
M  V30 15 C 6.585451 5.457096 -15.125840 0
M  V30 16 C 7.303912 4.222958 -12.961414 0 CFG=2
M  V30 17 N 7.913920 5.190225 -10.486960 0
M  V30 18 F 6.296551 -0.521956 -15.981864 0
M  V30 19 C 10.200615 5.633755 -17.944828 0
M  V30 20 C 8.056439 5.190266 -9.041126 0
M  V30 21 C 6.764350 5.511636 -13.603270 0
M  V30 22 C 9.495536 5.662434 -9.270057 0
M  V30 23 C 6.843117 5.270658 -18.150901 0 CFG=1
M  V30 24 N 7.998612 5.467073 -17.263585 0
M  V30 25 C 10.038515 7.476579 -7.577160 0
M  V30 26 C 5.966842 0.747710 -13.985778 0
M  V30 27 C 6.206636 1.915865 -13.237821 0
M  V30 28 C 7.574465 2.800460 -15.067940 0
M  V30 29 C 9.807344 7.165696 -9.061923 0 CFG=1
M  V30 30 H 9.666096 4.027581 -10.755956 0
M  V30 31 H 9.730076 5.685596 -11.490989 0
M  V30 32 H 9.101495 7.765978 -5.798919 0
M  V30 33 H 8.031882 7.496837 -7.169692 0
M  V30 34 H 8.681597 5.686440 -15.379397 0
M  V30 35 H 11.117907 8.581223 -9.695376 0
M  V30 36 H 11.791258 7.100453 -9.474995 0
M  V30 37 H 7.327904 7.190192 -19.020042 0
M  V30 38 H 7.828293 5.840750 -20.001622 0
M  V30 39 H 5.706447 3.685116 -19.134742 0
M  V30 40 H 7.446719 3.447070 -19.214309 0
M  V30 41 H 6.575411 3.152979 -17.720391 0
M  V30 42 H 7.772148 1.499722 -16.781488 0
M  V30 43 H 5.911799 7.091439 -21.011650 0
M  V30 44 H 5.437211 5.435600 -20.666543 0
M  V30 45 H 4.918222 6.742167 -19.600884 0
M  V30 46 H 6.282740 6.449976 -15.460048 0
M  V30 47 H 5.780593 4.790235 -15.416441 0
M  V30 48 H 8.391652 4.281705 -12.975495 0
M  V30 49 H 11.045496 5.121352 -18.404822 0
M  V30 50 H 9.949440 6.489718 -18.572395 0
M  V30 51 H 10.523626 5.990433 -16.966187 0
M  V30 52 H 7.416797 5.911151 -8.544250 0
M  V30 53 H 7.967793 4.205999 -8.585917 0
M  V30 54 H 7.392618 6.355437 -13.315239 0
M  V30 55 H 5.780291 5.724643 -13.183866 0
M  V30 56 H 10.175406 5.031546 -8.695745 0
M  V30 57 H 5.950515 5.603262 -17.622705 0
M  V30 58 H 5.350038 -0.040050 -13.575617 0
M  V30 59 H 5.775486 2.011139 -12.258194 0
M  V30 60 H 8.975414 7.768289 -9.421311 0
M  V30 61 H 10.844076 7.390628 -10.814007 0
M  V30 END ATOM
M  V30 BEGIN BOND
M  V30 1 2 11 3
M  V30 2 1 12 8
M  V30 3 1 13 5
M  V30 4 1 15 5
M  V30 5 1 16 6
M  V30 6 1 16 14
M  V30 7 1 17 1
M  V30 8 1 17 14
M  V30 9 1 18 3
M  V30 10 1 19 10
M  V30 11 1 20 17
M  V30 12 1 21 15
M  V30 13 1 21 16
M  V30 14 1 22 1
M  V30 15 1 22 20
M  V30 16 1 23 8
M  V30 17 1 23 9
M  V30 18 1 24 5
M  V30 19 1 24 10
M  V30 20 1 24 23
M  V30 21 2 25 2
M  V30 22 1 25 4
M  V30 23 1 26 3
M  V30 24 1 27 6
M  V30 25 2 27 26
M  V30 26 2 28 6
M  V30 27 1 28 11
M  V30 28 1 28 13
M  V30 29 1 29 7
M  V30 30 1 29 22
M  V30 31 1 29 25
M  V30 32 1 30 1
M  V30 33 1 31 1
M  V30 34 1 32 4
M  V30 35 1 33 4
M  V30 36 1 5 34 CFG=1
M  V30 37 1 35 7
M  V30 38 1 36 7
M  V30 39 1 37 8
M  V30 40 1 38 8
M  V30 41 1 39 9
M  V30 42 1 40 9
M  V30 43 1 41 9
M  V30 44 1 42 11
M  V30 45 1 43 12
M  V30 46 1 44 12
M  V30 47 1 45 12
M  V30 48 1 46 15
M  V30 49 1 47 15
M  V30 50 1 16 48 CFG=1
M  V30 51 1 49 19
M  V30 52 1 50 19
M  V30 53 1 51 19
M  V30 54 1 52 20
M  V30 55 1 53 20
M  V30 56 1 54 21
M  V30 57 1 55 21
M  V30 58 1 56 22
M  V30 59 1 23 57 CFG=1
M  V30 60 1 58 26
M  V30 61 1 59 27
M  V30 62 1 29 60 CFG=3
M  V30 63 1 61 7
M  V30 END BOND
M  V30 END CTAB
M  END
>  <i_epik_Tot_Q>  (1) 
1

>  <i_epik_Tot_abs_Q>  (1) 
1

>  <i_i_glide_confnum>  (1) 
515

>  <i_i_glide_lignum>  (1) 
15

>  <i_i_glide_posenum>  (1) 
341

>  <i_i_glide_rotatable_bonds>  (1) 
8

>  <i_lp_mmshare_version>  (1) 
72125

>  <i_m_source_file_index>  (1) 
9

>  <i_f3d_flags>  (1) 
0

>  <num_sample>  (1) 
100

>  <b_lp_Chiralities_Consistent>  (1) 
1

>  <r_epik_Charging_Adjusted_Penalty>  (1) 
1.6197365423892824

>  <r_epik_Ionization_Penalty>  (1) 
0.73483714514200482

>  <r_epik_Ionization_Penalty_Charging>  (1) 
0.26301760809738622

>  <r_epik_Ionization_Penalty_Neutral>  (1) 
0.47181953704461854

>  <r_epik_State_Penalty>  (1) 
1.3567189342918962

>  <r_glide_ring_energy>  (1) 
2.1725327972353821

>  <r_i_docking_score>  (1) 
-3.5346140626148523

>  <r_i_glide_ecoul>  (1) 
-3.5716973453630443

>  <r_i_glide_eff_state_penalty>  (1) 
1.3567189342918962

>  <r_i_glide_einternal>  (1) 
9.4933871466371258

>  <r_i_glide_emodel>  (1) 
-40.355583341591156

>  <r_i_glide_emodel_strain>  (1) 
0.78835290778097544

>  <r_i_glide_energy>  (1) 
-33.095770983267833

>  <r_i_glide_erotb>  (1) 
0.54307168116637361

>  <r_i_glide_esite>  (1) 
-0.13368132103028438

>  <r_i_glide_evdw>  (1) 
-29.524073637904792

>  <r_i_glide_gscore>  (1) 
-4.8913329969067485

>  <r_i_glide_gscore_strain>  (1) 
0

>  <r_i_glide_hbond>  (1) 
-0.16

>  <r_i_glide_ligand_efficiency>  (1) 
-0.12188324353844318

>  <r_i_glide_ligand_efficiency_ln>  (1) 
-0.8093369902596681

>  <r_i_glide_ligand_efficiency_sa>  (1) 
-0.3744639398923249

>  <r_i_glide_lipo>  (1) 
-1.717483990764785

>  <r_i_glide_metal>  (1) 
-0

>  <r_i_glide_rewards>  (1) 
-1.4112810825783557

>  <r_lp_Energy>  (1) 
41.059792999999999

>  <s_epik_Chemistry_Notes>  (1) 
This compound contains an acetal/aminal-like group ( X-CH(R)-Y where X, Y are N, S, or O) that may be acid/base labile, releasing an aldehyde. This compound has a N-S or N-O group and may undergo hydrolysis at high or low pH.

>  <s_epik_cmdline>  (1) 
J2VwaWtfcHl0aG9uJywgJy1waHQnLCAnMS4wJywgJy1waCcsICc3LjQnLCAnLXRuJywgJzgnLCAnLW1hJywgJzUwMCcsICctaW1hZScsICc8aW5maWxlLm1hZT4nLCAnLW9tYWUnLCAnPG91dGZpbGUubWFlPic=

>  <s_epik_input>  (1) 
Tz1DKFtOSDJdKVtDQEBIXShbTkgyXSlbQ0hdKFtDSDJdMSlbQ0gyXU4xU1tDQEBIXTJbQ0gyXVtDSDJdW0NASF0oTihPW0NIM10pW0NASF0oW0NIM10pW0NIMl1bQ0gzXSlPYyhjMjMpW2NIXWMoRilbY0hdW2NIXTM=

>  <s_glide_docking_method>  (1) 
confgen

>  <s_i_glide_gridfile>  (1) 
gpcr_drd2_6luq_protein_autoprepared_prepared

>  <s_lp_Force_Field>  (1) 
S-OPLS

>  <s_lp_Variant>  (1) 
DiffSBDD_8-5

>  <s_m_source_file>  (1) 
generated_generic_title2_ligand_DiffSBDD_2026-06-23_prepared.sdf

>  <GenAI_Model>  (1) 
DiffSBDD

>  <Protein>  (1) 
generic_title2

$$$$
DiffSBDD_43
     RDKit          3D

  0  0  0  0  0  0  0  0  0  0999 V3000
M  V30 BEGIN CTAB
M  V30 COUNTS 73 80 0 0 1
M  V30 BEGIN ATOM
M  V30 1 C 7.824055 1.052585 -16.392272 0 CFG=1
M  V30 2 C 8.483004 2.347617 -16.829688 0 CFG=2
M  V30 3 C 7.046709 2.875702 -14.927287 0 CFG=1
M  V30 4 C 8.498442 5.093124 -10.669406 0
M  V30 5 C 8.830366 0.942139 -19.513901 0
M  V30 6 C 9.977231 0.170545 -18.849464 0
M  V30 7 C 6.645988 1.498008 -15.514495 0
M  V30 8 S 13.445151 4.794188 -19.415135 0
M  V30 9 C 13.043977 2.018795 -18.928512 0 CFG=1
M  V30 10 C 13.676334 3.309649 -18.422358 0 CFG=1
M  V30 11 C 5.988721 4.326062 -11.122528 0
M  V30 12 C 14.312182 0.771573 -17.217264 0
M  V30 13 C 7.686321 2.750300 -13.529702 0
M  V30 14 C 12.918742 1.066725 -17.762621 0 CFG=2
M  V30 15 C 11.582692 4.643451 -17.339578 0
M  V30 16 C 6.744388 4.787019 -12.346572 0 CFG=1
M  V30 17 N 11.264771 0.575791 -19.243206 0
M  V30 18 C 7.058218 5.383532 -11.013185 0 CFG=2
M  V30 19 O 14.974153 3.039674 -17.884436 0
M  V30 20 C 9.749122 -0.809766 -17.939413 0
M  V30 21 C 8.976825 4.048439 -11.690244 0
M  V30 22 C 7.817435 -2.468073 -18.198101 0
M  V30 23 C 14.923761 2.120598 -16.784221 0
M  V30 24 C 11.651159 1.951879 -19.539358 0
M  V30 25 C 7.444711 0.030209 -17.518067 0 CFG=1
M  V30 26 C 7.426774 0.604919 -18.954817 0
M  V30 27 C 13.053362 4.475677 -17.664192 0 CFG=2
M  V30 28 C 8.021571 3.450871 -15.937742 0 CFG=2
M  V30 29 C 7.723711 3.523588 -17.414201 0
M  V30 30 F 7.901349 -2.347758 -19.523154 0
M  V30 31 O 12.196610 -0.009772 -18.320803 0
M  V30 32 F 8.516792 -3.540129 -17.828786 0
M  V30 33 F 6.543879 -2.685980 -17.871601 0
M  V30 34 C 7.988753 4.112207 -12.871382 0 CFG=1
M  V30 35 C 8.363414 -1.214697 -17.469486 0 CFG=2
M  V30 36 H 8.534566 0.586897 -15.708860 0
M  V30 37 H 9.549974 2.289276 -17.030985 0
M  V30 38 H 6.176235 3.526961 -14.853070 0
M  V30 39 H 8.589883 4.749705 -9.639016 0
M  V30 40 H 9.071116 6.016188 -10.769640 0
M  V30 41 H 8.986479 2.014870 -19.431677 0
M  V30 42 H 8.847709 0.730352 -20.583408 0
M  V30 43 H 5.775422 1.590125 -16.162346 0
M  V30 44 H 6.392369 0.761924 -14.750226 0
M  V30 45 H 13.732340 1.589728 -19.659833 0
M  V30 46 H 6.175366 3.335142 -10.724082 0
M  V30 47 H 4.975362 4.681040 -10.996929 0
M  V30 48 H 14.261214 0.074083 -16.384954 0
M  V30 49 H 14.931850 0.300589 -17.980824 0
M  V30 50 H 7.026267 2.179359 -12.875334 0
M  V30 51 H 8.595193 2.157466 -13.600985 0
M  V30 52 H 12.303888 1.516376 -16.980815 0
M  V30 53 H 11.279394 3.906028 -16.597417 0
M  V30 54 H 11.413565 5.634255 -16.916515 0
M  V30 55 H 10.952305 4.556003 -18.221680 0
M  V30 56 H 6.192006 5.391038 -13.064039 0
M  V30 57 H 6.712144 6.390211 -10.827571 0
M  V30 58 H 10.575002 -1.336674 -17.486955 0
M  V30 59 H 8.975476 3.063002 -11.235836 0
M  V30 60 H 10.001882 4.236303 -12.012512 0
M  V30 61 H 14.331115 2.563949 -15.984974 0
M  V30 62 H 15.915195 1.965352 -16.369592 0
M  V30 63 H 11.652206 2.156669 -20.610186 0
M  V30 64 H 10.974053 2.638619 -19.044984 0
M  V30 65 H 6.433278 -0.313631 -17.298345 0
M  V30 66 H 6.773380 1.474179 -19.018454 0
M  V30 67 H 6.957708 -0.123599 -19.614396 0
M  V30 68 H 13.724206 5.054476 -17.032147 0
M  V30 69 H 8.772895 4.148377 -15.577617 0
M  V30 70 H 6.692617 3.377973 -17.727517 0
M  V30 71 H 8.291383 4.240402 -18.003860 0
M  V30 72 H 8.427247 4.801934 -13.588927 0
M  V30 73 H 8.465242 -1.499996 -16.421943 0
M  V30 END ATOM
M  V30 BEGIN BOND
M  V30 1 1 2 1
M  V30 2 1 6 5
M  V30 3 1 7 1
M  V30 4 1 7 3
M  V30 5 1 10 8
M  V30 6 1 10 9
M  V30 7 1 13 3
M  V30 8 1 14 9
M  V30 9 1 14 12
M  V30 10 1 16 11
M  V30 11 1 17 6
M  V30 12 1 18 4
M  V30 13 1 18 11
M  V30 14 1 18 16
M  V30 15 1 10 19 CFG=1
M  V30 16 2 20 6
M  V30 17 1 21 4
M  V30 18 1 23 12
M  V30 19 1 23 19
M  V30 20 1 24 9
M  V30 21 1 24 17
M  V30 22 1 25 1
M  V30 23 1 26 5
M  V30 24 1 26 25
M  V30 25 1 27 8
M  V30 26 1 27 10
M  V30 27 1 27 15
M  V30 28 1 28 2
M  V30 29 1 28 3
M  V30 30 1 29 2
M  V30 31 1 29 28
M  V30 32 1 30 22
M  V30 33 1 31 14
M  V30 34 1 31 17
M  V30 35 1 32 22
M  V30 36 1 33 22
M  V30 37 1 34 13
M  V30 38 1 34 16
M  V30 39 1 34 21
M  V30 40 1 35 20
M  V30 41 1 35 22
M  V30 42 1 35 25
M  V30 43 1 1 36 CFG=1
M  V30 44 1 2 37 CFG=3
M  V30 45 1 3 38 CFG=1
M  V30 46 1 39 4
M  V30 47 1 40 4
M  V30 48 1 41 5
M  V30 49 1 42 5
M  V30 50 1 43 7
M  V30 51 1 44 7
M  V30 52 1 9 45 CFG=3
M  V30 53 1 46 11
M  V30 54 1 47 11
M  V30 55 1 48 12
M  V30 56 1 49 12
M  V30 57 1 50 13
M  V30 58 1 51 13
M  V30 59 1 14 52 CFG=1
M  V30 60 1 53 15
M  V30 61 1 54 15
M  V30 62 1 55 15
M  V30 63 1 16 56 CFG=3
M  V30 64 1 18 57 CFG=3
M  V30 65 1 58 20
M  V30 66 1 59 21
M  V30 67 1 60 21
M  V30 68 1 61 23
M  V30 69 1 62 23
M  V30 70 1 63 24
M  V30 71 1 64 24
M  V30 72 1 25 65 CFG=1
M  V30 73 1 66 26
M  V30 74 1 67 26
M  V30 75 1 27 68 CFG=1
M  V30 76 1 28 69 CFG=1
M  V30 77 1 70 29
M  V30 78 1 71 29
M  V30 79 1 34 72 CFG=3
M  V30 80 1 35 73 CFG=1
M  V30 END BOND
M  V30 END CTAB
M  END
>  <i_epik_Tot_Q>  (1) 
0

>  <i_epik_Tot_abs_Q>  (1) 
0

>  <i_i_glide_confnum>  (1) 
236

>  <i_i_glide_lignum>  (1) 
69

>  <i_i_glide_posenum>  (1) 
213

>  <i_i_glide_rotatable_bonds>  (1) 
5

>  <i_lp_mmshare_version>  (1) 
72125

>  <i_m_source_file_index>  (1) 
44

>  <i_f3d_flags>  (1) 
0

>  <num_sample>  (1) 
100

>  <b_lp_Chiralities_Consistent>  (1) 
1

>  <r_epik_Charging_Adjusted_Penalty>  (1) 
0

>  <r_epik_Ionization_Penalty>  (1) 
0.0012510015798316548

>  <r_epik_Ionization_Penalty_Charging>  (1) 
0

>  <r_epik_Ionization_Penalty_Neutral>  (1) 
0.0012510015798316548

>  <r_epik_State_Penalty>  (1) 
-0

>  <r_glide_ring_energy>  (1) 
2.4413042619657612

>  <r_i_docking_score>  (1) 
-3.5346081647971159

>  <r_i_glide_ecoul>  (1) 
-2.2186147275675303

>  <r_i_glide_eff_state_penalty>  (1) 
-0

>  <r_i_glide_einternal>  (1) 
15.70877063459805

>  <r_i_glide_emodel>  (1) 
-24.759370826164499

>  <r_i_glide_emodel_strain>  (1) 
0

>  <r_i_glide_energy>  (1) 
-27.424309459700318

>  <r_i_glide_erotb>  (1) 
0.31537474361301371

>  <r_i_glide_esite>  (1) 
-0.06299424009050221

>  <r_i_glide_evdw>  (1) 
-25.205694732132788

>  <r_i_glide_gscore>  (1) 
-3.5346081647971159

>  <r_i_glide_gscore_strain>  (1) 
0

>  <r_i_glide_hbond>  (1) 
0

>  <r_i_glide_ligand_efficiency>  (1) 
-0.10098880470848903

>  <r_i_glide_ligand_efficiency_ln>  (1) 
-0.77592493857460432

>  <r_i_glide_ligand_efficiency_sa>  (1) 
-0.33034107678815333

>  <r_i_glide_lipo>  (1) 
-1.6888716960853161

>  <r_i_glide_metal>  (1) 
-0

>  <r_i_glide_rewards>  (1) 
-0.50504002649254209

>  <r_lp_Energy>  (1) 
38.603110000000001

>  <r_lp_tautomer_probability>  (1) 
1

>  <s_epik_Chemistry_Notes>  (1) 
This compound has a N-S or N-O group and may undergo hydrolysis at high or low pH.

>  <s_epik_cmdline>  (1) 
J2VwaWtfcHl0aG9uJywgJy1waHQnLCAnMS4wJywgJy1waCcsICc3LjQnLCAnLXRuJywgJzgnLCAnLW1hJywgJzUwMCcsICctaW1hZScsICc8aW5maWxlLm1hZT4nLCAnLW9tYWUnLCAnPG91dGZpbGUubWFlPic=

>  <s_epik_input>  (1) 
W0NIMl0xW0NASF0oW0NASF0xMilbQ0gyXVtDSDJdW0NASF0yW0NIMl1bQ0BASF0oW0NAQEhdKFtDQEBIXTM0KVtDSDJdNClbQ0gyXVtDQEhdM1tDQEBIXShbQ0gyXVtDSDJdNSlbQ0BASF0oQyhGKShGKUYpW0NIXT1DNU4oW0NIMl02KU9bQ0BASF0oW0NIMl1bQ0gyXU83KVtDQEBIXTZbQ0BAXTc4U1tDQEhdOFtDSDNd

>  <s_glide_docking_method>  (1) 
confgen

>  <s_i_glide_gridfile>  (1) 
gpcr_drd2_6luq_protein_autoprepared_prepared

>  <s_lp_Force_Field>  (1) 
S-OPLS

>  <s_lp_Variant>  (1) 
DiffSBDD_43-1

>  <s_m_source_file>  (1) 
generated_generic_title2_ligand_DiffSBDD_2026-06-23_prepared.sdf

>  <GenAI_Model>  (1) 
DiffSBDD

>  <Protein>  (1) 
generic_title2

$$$$
DiffSBDD_2
     RDKit          3D

  0  0  0  0  0  0  0  0  0  0999 V3000
M  V30 BEGIN CTAB
M  V30 COUNTS 70 74 0 0 1
M  V30 BEGIN ATOM
M  V30 1 C 7.996147 5.150537 -10.411460 0
M  V30 2 N 7.531854 3.918730 -16.760821 0
M  V30 3 C 8.313136 1.168662 -18.147167 0
M  V30 4 C 10.932246 6.147944 -19.178631 0
M  V30 5 C 7.435031 3.475169 -21.150401 0
M  V30 6 C 10.865557 7.453653 -9.282037 0 CFG=1
M  V30 7 C 9.508336 4.932575 -20.941033 0
M  V30 8 O 6.004953 6.564871 -14.710694 0
M  V30 9 C 9.812941 6.781276 -10.147606 0
M  V30 10 C 7.822412 3.451630 -14.362495 0 CFG=2
M  V30 11 C 9.415300 4.223145 -18.490966 0
M  V30 12 C 6.658366 5.556683 -14.980125 0
M  V30 13 C 6.085847 2.120086 -18.720745 0
M  V30 14 C 12.222518 7.846506 -9.816185 0
M  V30 15 O 11.154892 8.790233 -9.706654 0
M  V30 16 O 6.975400 2.317373 -14.346020 0
M  V30 17 O 10.406573 3.665445 -18.016494 0
M  V30 18 C 9.111620 5.353800 -8.144480 0
M  V30 19 C 9.840970 6.375434 -7.301761 0
M  V30 20 C 8.094377 4.619967 -21.413826 0
M  V30 21 C 11.035234 7.531121 -19.836796 0
M  V30 22 F 11.235151 8.181222 -6.990252 0
M  V30 23 C 8.666888 6.532576 -12.301826 0
M  V30 24 C 7.043282 5.265238 -16.450761 0
M  V30 25 C 8.975398 5.766081 -9.606238 0
M  V30 26 C 7.609580 2.367087 -18.826380 0
M  V30 27 C 9.603938 5.404434 -19.466527 0 CFG=1
M  V30 28 C 7.837120 5.532627 -11.756053 0
M  V30 29 C 9.649221 7.152601 -11.503908 0
M  V30 30 C 7.957385 3.767668 -18.177667 0 CFG=1
M  V30 31 C 6.753566 4.874375 -12.606953 0
M  V30 32 N 7.076230 4.674650 -14.028678 0
M  V30 33 C 10.629514 7.316871 -7.823731 0
M  V30 34 C 8.002705 2.324346 -20.333521 0
M  V30 35 C 8.493743 3.514341 -15.740495 0
M  V30 36 H 7.356104 4.389836 -9.989273 0
M  V30 37 H 8.115292 0.242736 -18.687412 0
M  V30 38 H 9.395211 1.285832 -18.107469 0
M  V30 39 H 7.950174 1.007696 -17.132509 0
M  V30 40 H 11.042897 6.289124 -18.102050 0
M  V30 41 H 11.780322 5.536274 -19.490176 0
M  V30 42 H 6.428838 3.347129 -21.522756 0
M  V30 43 H 9.883235 5.704333 -21.611231 0
M  V30 44 H 10.162875 4.077610 -21.112140 0
M  V30 45 H 8.584039 3.300148 -13.596763 0
M  V30 46 H 5.788638 1.215909 -19.252880 0
M  V30 47 H 5.775952 1.990089 -17.683537 0
M  V30 48 H 5.505761 2.946654 -19.132562 0
M  V30 49 H 13.043206 8.027732 -9.124744 0
M  V30 50 H 12.487494 7.591256 -10.838517 0
M  V30 51 H 7.464692 1.574225 -14.026217 0
M  V30 52 H 8.111642 5.226947 -7.727282 0
M  V30 53 H 9.613113 4.390329 -8.090063 0
M  V30 54 H 9.703869 6.316781 -6.231956 0
M  V30 55 H 7.604719 5.388420 -21.994759 0
M  V30 56 H 11.927045 8.057245 -19.495090 0
M  V30 57 H 11.094494 7.466040 -20.922485 0
M  V30 58 H 10.175430 8.147742 -19.585589 0
M  V30 59 H 8.546697 6.832571 -13.330166 0
M  V30 60 H 6.174873 5.493510 -17.069401 0
M  V30 61 H 7.809178 5.990243 -16.719624 0
M  V30 62 H 8.793462 6.107649 -19.273500 0
M  V30 63 H 10.273405 7.921223 -11.930324 0
M  V30 64 H 7.321474 4.456649 -18.732372 0
M  V30 65 H 5.836926 5.453634 -12.485223 0
M  V30 66 H 6.520524 3.900780 -12.173333 0
M  V30 67 H 7.647599 1.399251 -20.789338 0
M  V30 68 H 9.085633 2.279668 -20.443054 0
M  V30 69 H 9.313955 4.233644 -15.689821 0
M  V30 70 H 8.949278 2.558048 -15.985028 0
M  V30 END ATOM
M  V30 BEGIN BOND
M  V30 1 1 9 6
M  V30 2 2 12 8
M  V30 3 1 14 6
M  V30 4 1 6 15 CFG=3
M  V30 5 1 15 14
M  V30 6 1 16 10
M  V30 7 2 17 11
M  V30 8 1 19 18
M  V30 9 2 20 5
M  V30 10 1 20 7
M  V30 11 1 21 4
M  V30 12 1 24 2
M  V30 13 1 24 12
M  V30 14 1 25 1
M  V30 15 2 25 9
M  V30 16 1 25 18
M  V30 17 1 26 3
M  V30 18 1 26 13
M  V30 19 1 27 4
M  V30 20 1 27 7
M  V30 21 1 27 11
M  V30 22 2 28 1
M  V30 23 1 28 23
M  V30 24 1 29 9
M  V30 25 2 29 23
M  V30 26 1 30 2
M  V30 27 1 30 11
M  V30 28 1 30 26
M  V30 29 1 31 28
M  V30 30 1 32 10
M  V30 31 1 32 12
M  V30 32 1 32 31
M  V30 33 1 33 6
M  V30 34 2 33 19
M  V30 35 1 33 22
M  V30 36 1 34 5
M  V30 37 1 34 26
M  V30 38 1 35 2
M  V30 39 1 35 10
M  V30 40 1 36 1
M  V30 41 1 37 3
M  V30 42 1 38 3
M  V30 43 1 39 3
M  V30 44 1 40 4
M  V30 45 1 41 4
M  V30 46 1 42 5
M  V30 47 1 43 7
M  V30 48 1 44 7
M  V30 49 1 10 45 CFG=1
M  V30 50 1 46 13
M  V30 51 1 47 13
M  V30 52 1 48 13
M  V30 53 1 49 14
M  V30 54 1 50 14
M  V30 55 1 51 16
M  V30 56 1 52 18
M  V30 57 1 53 18
M  V30 58 1 54 19
M  V30 59 1 55 20
M  V30 60 1 56 21
M  V30 61 1 57 21
M  V30 62 1 58 21
M  V30 63 1 59 23
M  V30 64 1 60 24
M  V30 65 1 61 24
M  V30 66 1 27 62 CFG=1
M  V30 67 1 63 29
M  V30 68 1 30 64 CFG=3
M  V30 69 1 65 31
M  V30 70 1 66 31
M  V30 71 1 67 34
M  V30 72 1 68 34
M  V30 73 1 69 35
M  V30 74 1 70 35
M  V30 END BOND
M  V30 END CTAB
M  END
>  <i_epik_Tot_Q>  (1) 
0

>  <i_epik_Tot_abs_Q>  (1) 
0

>  <i_i_glide_confnum>  (1) 
28

>  <i_i_glide_lignum>  (1) 
4

>  <i_i_glide_posenum>  (1) 
343

>  <i_i_glide_rotatable_bonds>  (1) 
5

>  <i_lp_mmshare_version>  (1) 
72125

>  <i_m_source_file_index>  (1) 
3

>  <i_f3d_flags>  (1) 
0

>  <num_sample>  (1) 
100

>  <b_lp_Chiralities_Consistent>  (1) 
1

>  <r_epik_Charging_Adjusted_Penalty>  (1) 
0.083814788405558657

>  <r_epik_Ionization_Penalty>  (1) 
0.083950354633568577

>  <r_epik_Ionization_Penalty_Charging>  (1) 
0

>  <r_epik_Ionization_Penalty_Neutral>  (1) 
0.083950354633568577

>  <r_epik_State_Penalty>  (1) 
0.083814788405558657

>  <r_glide_ring_energy>  (1) 
0

>  <r_i_docking_score>  (1) 
-3.5263385021231457

>  <r_i_glide_ecoul>  (1) 
0.64621242835226256

>  <r_i_glide_eff_state_penalty>  (1) 
0.083814788405558657

>  <r_i_glide_einternal>  (1) 
3.3879637259977375

>  <r_i_glide_emodel>  (1) 
-41.370821722339251

>  <r_i_glide_emodel_strain>  (1) 
0

>  <r_i_glide_energy>  (1) 
-35.676820435541281

>  <r_i_glide_erotb>  (1) 
0.26141387589162818

>  <r_i_glide_esite>  (1) 
0

>  <r_i_glide_evdw>  (1) 
-36.323032863893545

>  <r_i_glide_gscore>  (1) 
-3.6101532905287042

>  <r_i_glide_gscore_strain>  (1) 
0

>  <r_i_glide_hbond>  (1) 
0

>  <r_i_glide_ligand_efficiency>  (1) 
-0.10075252863208987

>  <r_i_glide_ligand_efficiency_ln>  (1) 
-0.77410956408239351

>  <r_i_glide_ligand_efficiency_sa>  (1) 
-0.32956820207474052

>  <r_i_glide_lipo>  (1) 
-0.88055065143300881

>  <r_i_glide_metal>  (1) 
-0

>  <r_i_glide_rewards>  (1) 
-1.2717967360454858

>  <r_lp_Energy>  (1) 
64.581304000000003

>  <r_lp_tautomer_probability>  (1) 
0.99999998000000001

>  <s_epik_Chemistry_Notes>  (1) 
This compound contains an acetal/aminal-like group ( X-CH(R)-Y where X, Y are N, S, or O) that may be acid/base labile, releasing an aldehyde.

>  <s_epik_cmdline>  (1) 
J2VwaWtfcHl0aG9uJywgJy1waHQnLCAnMS4wJywgJy1waCcsICc3LjQnLCAnLXRuJywgJzgnLCAnLW1hJywgJzUwMCcsICctaW1hZScsICc8aW5maWxlLm1hZT4nLCAnLW9tYWUnLCAnPG91dGZpbGUubWFlPic=

>  <s_epik_input>  (1) 
TzFbQ0gyXVtDQF0xMmMzYyhbQ0gyXVtDSF09QzJGKVtjSF1jKFtjSF1bY0hdMylbQ0gyXU4oW0NAQEhdKFtPSF0pW0NIMl00KUMoPU8pW0NIMl1ONFtDQEhdKEM1KFtDSDNdKVtDSDNdKUMoPU8pW0NAQEhdKFtDSDJdW0NIM10pW0NIMl0vW0NIXT1bQ0hdXFtDSDJdNQ==

>  <s_glide_docking_method>  (1) 
confgen

>  <s_i_glide_gridfile>  (1) 
gpcr_drd2_6luq_protein_autoprepared_prepared

>  <s_lp_Force_Field>  (1) 
S-OPLS

>  <s_lp_Variant>  (1) 
DiffSBDD_2-1

>  <s_m_source_file>  (1) 
generated_generic_title2_ligand_DiffSBDD_2026-06-23_prepared.sdf

>  <GenAI_Model>  (1) 
DiffSBDD

>  <Protein>  (1) 
generic_title2

$$$$
DiffSBDD_9
     RDKit          3D

  0  0  0  0  0  0  0  0  0  0999 V3000
M  V30 BEGIN CTAB
M  V30 COUNTS 66 71 0 0 1
M  V30 BEGIN ATOM
M  V30 1 C 5.311377 4.097655 -21.247396 0
M  V30 2 O 6.432274 0.592538 -21.413839 0
M  V30 3 C 5.811388 4.480453 -19.988877 0
M  V30 4 C 9.899985 7.305396 -7.761013 0 CFG=2
M  V30 5 C 10.586574 8.175356 -5.452254 0
M  V30 6 C 6.989999 5.899028 -13.900353 0
M  V30 7 C 8.567528 4.028701 -17.925349 0 CFG=2
M  V30 8 C 9.146307 2.752945 -17.361183 0
M  V30 9 C 12.366832 9.609449 -6.208192 0
M  V30 10 O 8.452604 4.857423 -11.514272 0
M  V30 11 C 5.524047 2.790938 -21.724791 0
M  V30 12 C 10.389638 6.675062 -9.055472 0
M  V30 13 C 6.305143 5.920400 -15.293608 0
M  V30 14 O 6.211733 6.309551 -12.889258 0
M  V30 15 C 11.054944 7.688241 -6.814524 0 CFG=2
M  V30 16 N 11.865359 8.803178 -7.343003 0 CHG=1
M  V30 17 N 7.649619 5.379123 -15.912093 0 CHG=1
M  V30 18 C 9.144953 5.378023 -12.632743 0
M  V30 19 C 11.743677 9.025208 -4.937274 0
M  V30 20 C 8.609382 5.190002 -15.071982 0
M  V30 21 C 6.750021 2.242617 -19.680180 0
M  V30 22 C 8.985864 1.620192 -18.410296 0
M  V30 23 O 9.415993 4.834557 -10.369807 0
M  V30 24 C 8.229692 5.497416 -13.836915 0
M  V30 25 C 8.508146 5.498038 -8.229299 0
M  V30 26 C 7.532323 1.227533 -18.814074 0
M  V30 27 C 7.748332 5.189307 -17.377253 0 CFG=2
M  V30 28 C 7.060855 3.946459 -17.872381 0 CFG=1
M  V30 29 C 9.152912 5.950763 -9.539777 0 CFG=1
M  V30 30 C 6.530839 3.558646 -19.198823 0
M  V30 31 O 9.123937 6.261402 -7.190491 0
M  V30 32 C 6.238971 1.861119 -20.945675 0
M  V30 33 H 4.761190 4.807999 -21.847885 0
M  V30 34 H 5.857261 0.369608 -22.131880 0
M  V30 35 H 5.642955 5.484458 -19.626958 0
M  V30 36 H 9.249328 8.157373 -7.971752 0
M  V30 37 H 9.704142 8.797750 -5.585335 0
M  V30 38 H 10.332318 7.349811 -4.786030 0
M  V30 39 H 9.034215 4.298305 -18.872815 0
M  V30 40 H 8.662818 2.481602 -16.421066 0
M  V30 41 H 10.203220 2.910163 -17.143714 0
M  V30 42 H 12.056962 10.646395 -6.342326 0
M  V30 43 H 13.456761 9.590268 -6.166231 0
M  V30 44 H 5.135039 2.500992 -22.690685 0
M  V30 45 H 11.180585 5.988332 -8.786414 0
M  V30 46 H 10.779229 7.390396 -9.780517 0
M  V30 47 H 5.507670 5.190958 -15.418822 0
M  V30 48 H 6.082269 6.912617 -15.687693 0
M  V30 49 H 11.713039 6.830649 -6.659595 0
M  V30 50 H 12.624227 8.456201 -7.912500 0
M  V30 51 H 9.999353 4.735031 -12.850088 0
M  V30 52 H 9.535316 6.368205 -12.395110 0
M  V30 53 H 11.417872 9.795477 -4.236842 0
M  V30 54 H 12.465344 8.398162 -4.412767 0
M  V30 55 H 9.581982 4.828672 -15.389318 0
M  V30 56 H 9.471862 0.731869 -18.006369 0
M  V30 57 H 9.548024 1.873049 -19.309897 0
M  V30 58 H 7.424273 5.589571 -8.255511 0
M  V30 59 H 8.730237 4.448278 -8.040779 0
M  V30 60 H 6.946971 1.027346 -17.915614 0
M  V30 61 H 7.589781 0.266350 -19.323628 0
M  V30 62 H 7.615192 6.126790 -17.914047 0
M  V30 63 H 6.616446 3.302101 -17.117723 0
M  V30 64 H 8.575223 6.696119 -10.073499 0
M  V30 65 H 11.268905 9.393837 -7.905513 0
M  V30 66 H 6.711660 6.244985 -12.086971 0
M  V30 END ATOM
M  V30 BEGIN BOND
M  V30 1 1 3 1
M  V30 2 1 8 7
M  V30 3 2 11 1
M  V30 4 1 12 4
M  V30 5 1 13 6
M  V30 6 1 14 6
M  V30 7 1 15 4
M  V30 8 1 15 5
M  V30 9 1 16 9
M  V30 10 1 16 15
M  V30 11 1 17 13
M  V30 12 1 18 10
M  V30 13 1 19 5
M  V30 14 1 19 9
M  V30 15 2 20 17
M  V30 16 1 22 8
M  V30 17 1 23 10
M  V30 18 2 24 6
M  V30 19 1 24 18
M  V30 20 1 24 20
M  V30 21 1 26 21
M  V30 22 1 26 22
M  V30 23 1 27 7
M  V30 24 1 27 17
M  V30 25 1 28 7
M  V30 26 1 28 27
M  V30 27 1 29 12
M  V30 28 1 29 23
M  V30 29 1 29 25
M  V30 30 2 30 3
M  V30 31 1 30 21
M  V30 32 1 30 28
M  V30 33 1 31 4
M  V30 34 1 31 25
M  V30 35 1 32 2
M  V30 36 1 32 11
M  V30 37 2 32 21
M  V30 38 1 33 1
M  V30 39 1 34 2
M  V30 40 1 35 3
M  V30 41 1 4 36 CFG=3
M  V30 42 1 37 5
M  V30 43 1 38 5
M  V30 44 1 7 39 CFG=3
M  V30 45 1 40 8
M  V30 46 1 41 8
M  V30 47 1 42 9
M  V30 48 1 43 9
M  V30 49 1 44 11
M  V30 50 1 45 12
M  V30 51 1 46 12
M  V30 52 1 47 13
M  V30 53 1 48 13
M  V30 54 1 15 49 CFG=1
M  V30 55 1 50 16
M  V30 56 1 51 18
M  V30 57 1 52 18
M  V30 58 1 53 19
M  V30 59 1 54 19
M  V30 60 1 55 20
M  V30 61 1 56 22
M  V30 62 1 57 22
M  V30 63 1 58 25
M  V30 64 1 59 25
M  V30 65 1 60 26
M  V30 66 1 61 26
M  V30 67 1 27 62 CFG=3
M  V30 68 1 28 63 CFG=1
M  V30 69 1 29 64 CFG=3
M  V30 70 1 65 16
M  V30 71 1 66 14
M  V30 END BOND
M  V30 END CTAB
M  END
>  <i_epik_Tot_Q>  (1) 
2

>  <i_epik_Tot_abs_Q>  (1) 
2

>  <i_i_glide_confnum>  (1) 
208

>  <i_i_glide_lignum>  (1) 
17

>  <i_i_glide_posenum>  (1) 
385

>  <i_i_glide_rotatable_bonds>  (1) 
8

>  <i_lp_mmshare_version>  (1) 
72125

>  <i_m_source_file_index>  (1) 
10

>  <i_f3d_flags>  (1) 
0

>  <num_sample>  (1) 
100

>  <b_lp_Chiralities_Consistent>  (1) 
1

>  <r_epik_Charging_Adjusted_Penalty>  (1) 
1.3157260146662635

>  <r_epik_Ionization_Penalty>  (1) 
1.3160658386974122

>  <r_epik_Ionization_Penalty_Charging>  (1) 
0.0006406180093694357

>  <r_epik_Ionization_Penalty_Neutral>  (1) 
1.3154252206880428

>  <r_epik_State_Penalty>  (1) 
1.3150853966568941

>  <r_glide_ring_energy>  (1) 
0.028054261374207707

>  <r_i_docking_score>  (1) 
-3.5067849780099776

>  <r_i_glide_ecoul>  (1) 
-4.0602421358125929

>  <r_i_glide_eff_state_penalty>  (1) 
1.3150853966568941

>  <r_i_glide_einternal>  (1) 
4.5091464693035102

>  <r_i_glide_emodel>  (1) 
-43.610207297836922

>  <r_i_glide_emodel_strain>  (1) 
0.57904238207584058

>  <r_i_glide_energy>  (1) 
-35.893299662187538

>  <r_i_glide_erotb>  (1) 
0.61220542290859559

>  <r_i_glide_esite>  (1) 
0

>  <r_i_glide_evdw>  (1) 
-31.833057526374944

>  <r_i_glide_gscore>  (1) 
-4.8218703746668714

>  <r_i_glide_gscore_strain>  (1) 
0

>  <r_i_glide_hbond>  (1) 
0

>  <r_i_glide_ligand_efficiency>  (1) 
-0.1095870305628118

>  <r_i_glide_ligand_efficiency_ln>  (1) 
-0.78526474792462553

>  <r_i_glide_ligand_efficiency_sa>  (1) 
-0.34791713519495743

>  <r_i_glide_lipo>  (1) 
-2.1303654388456019

>  <r_i_glide_metal>  (1) 
-0

>  <r_i_glide_rewards>  (1) 
-1.1030211620392292

>  <r_lp_Energy>  (1) 
41.799700000000001

>  <r_lp_tautomer_probability>  (1) 
0.99929914238884965

>  <s_epik_Chemistry_Notes>  (1) 
This compound has an imine and may undergo hydrolysis.

>  <s_epik_cmdline>  (1) 
J2VwaWtfcHl0aG9uJywgJy1waHQnLCAnMS4wJywgJy1waCcsICc3LjQnLCAnLXRuJywgJzgnLCAnLW1hJywgJzUwMCcsICctaW1hZScsICc8aW5maWxlLm1hZT4nLCAnLW9tYWUnLCAnPG91dGZpbGUubWFlPic=

>  <s_epik_input>  (1) 
W2NIXTFbY0hdW2NIXWMoW09IXSljKFtDSDJdW0NIMl1bQ0gyXTIpYzFbQ0BASF0oW0NASF0yMylbQ0hdM24oW2NIXWM0W09IXSlbY0hdYzRbQ0gyXU9PW0NAQEhdKFtDSDJdTzUpW0NIMl1bQ0BASF01W0NAQEhdNltDSDJdW0NIMl1bQ0gyXVtOSF02

>  <s_glide_docking_method>  (1) 
confgen

>  <s_i_glide_gridfile>  (1) 
gpcr_drd2_6luq_protein_autoprepared_prepared

>  <s_lp_Force_Field>  (1) 
S-OPLS

>  <s_lp_Variant>  (1) 
DiffSBDD_9-2

>  <s_m_source_file>  (1) 
generated_generic_title2_ligand_DiffSBDD_2026-06-23_prepared.sdf

>  <GenAI_Model>  (1) 
DiffSBDD

>  <Protein>  (1) 
generic_title2

$$$$
DiffSBDD_90
     RDKit          3D

  0  0  0  0  0  0  0  0  0  0999 V3000
M  V30 BEGIN CTAB
M  V30 COUNTS 80 84 0 0 1
M  V30 BEGIN ATOM
M  V30 1 C 7.525061 7.018237 -13.565048 0
M  V30 2 C 8.660729 6.105058 -13.062099 0 CFG=1
M  V30 3 C 10.022834 7.692897 -10.060171 0
M  V30 4 C 7.216831 3.608944 -18.914181 0 CFG=2
M  V30 5 C 10.872256 6.954893 -11.932917 0
M  V30 6 C 10.039448 8.298815 -8.744671 0 CFG=2
M  V30 7 C 6.773418 3.618151 -15.011168 0 CFG=2
M  V30 8 O 6.806514 6.439424 -15.818270 0
M  V30 9 C 6.720430 6.069679 -14.468887 0 CFG=1
M  V30 10 C 5.566572 4.592681 -20.743812 0
M  V30 11 O 9.691981 7.190233 -19.585030 0
M  V30 12 C 9.513244 6.709965 -11.985003 0
M  V30 13 C 7.155978 4.305715 -11.816434 0 CFG=2
M  V30 14 O 9.697814 4.977363 -19.968874 0 CHG=-1
M  V30 15 O 6.422785 2.486229 -19.261526 0
M  V30 16 C 7.485795 3.190141 -16.379452 0 CFG=2
M  V30 17 N 6.975408 4.026789 -17.512395 0
M  V30 18 N 7.386830 4.786381 -14.368598 0
M  V30 19 C 5.569887 7.299212 -19.599892 0
M  V30 20 C 7.435245 1.659662 -16.738367 0
M  V30 21 O 7.548475 4.790269 -10.551397 0
M  V30 22 O 8.175428 0.772223 -15.927631 0
M  V30 23 O 7.775343 0.889995 -12.784995 0
M  V30 24 C 8.224077 3.380017 -12.397200 0 CFG=1
M  V30 25 C 9.142757 6.083088 -19.777843 0
M  V30 26 C 6.542086 2.454661 -14.039765 0
M  V30 27 N 11.098544 7.563325 -10.729742 0
M  V30 28 O 4.883425 7.600109 -20.575267 0
M  V30 29 C 11.604101 8.661561 -8.821825 0
M  V30 30 N 9.019882 7.196572 -10.784988 0 CHG=1
M  V30 31 C 6.949114 4.682346 -20.029782 0 CFG=1
M  V30 32 O 10.826182 8.004768 -5.800536 0
M  V30 33 O 9.769011 7.328467 -7.748326 0
M  V30 34 C 9.610095 7.801533 -6.451515 0
M  V30 35 C 4.914385 7.061315 -18.242636 0
M  V30 36 C 7.616615 6.083487 -19.779317 0
M  V30 37 C 7.838022 2.196436 -13.291080 0 CFG=2
M  V30 38 C 11.172151 9.359727 -5.557522 0
M  V30 39 N 6.943241 7.171715 -19.585076 0
M  V30 40 C 12.291990 8.051395 -10.129575 0
M  V30 41 C 7.966478 4.744774 -13.027181 0 CFG=1
M  V30 42 H 6.900714 7.336440 -12.729420 0
M  V30 43 H 7.853720 7.919621 -14.073574 0
M  V30 44 H 9.373869 5.990247 -13.882510 0
M  V30 45 H 8.257183 3.296385 -18.993390 0
M  V30 46 H 11.660302 6.756837 -12.645216 0
M  V30 47 H 9.364532 9.155765 -8.745800 0
M  V30 48 H 5.775423 3.969907 -15.185023 0
M  V30 49 H 6.320315 7.240143 -15.942647 0
M  V30 50 H 5.679199 6.003245 -14.147099 0
M  V30 51 H 5.485926 5.314543 -21.556314 0
M  V30 52 H 5.420696 3.623509 -21.219693 0
M  V30 53 H 4.733244 4.727426 -20.054543 0
M  V30 54 H 6.085521 4.143104 -11.907382 0
M  V30 55 H 6.889562 1.981959 -19.909825 0
M  V30 56 H 8.547429 3.412872 -16.266666 0
M  V30 57 H 7.211698 5.005112 -17.352100 0
M  V30 58 H 7.932854 1.478737 -17.687519 0
M  V30 59 H 6.408313 1.303891 -16.833086 0
M  V30 60 H 6.934963 4.489825 -9.894737 0
M  V30 61 H 7.788324 0.720681 -15.064002 0
M  V30 62 H 7.184905 0.872805 -12.047414 0
M  V30 63 H 9.160051 3.267089 -11.853077 0
M  V30 64 H 5.726291 2.669461 -13.353680 0
M  V30 65 H 6.176494 1.566791 -14.551897 0
M  V30 66 H 11.718366 9.744993 -8.854439 0
M  V30 67 H 12.141526 8.322355 -7.937350 0
M  V30 68 H 7.545024 4.293170 -20.855428 0
M  V30 69 H 8.940827 8.665590 -6.410460 0
M  V30 70 H 9.113828 6.982693 -5.932283 0
M  V30 71 H 5.280301 7.793102 -17.523229 0
M  V30 72 H 3.832965 7.175278 -18.312493 0
M  V30 73 H 5.125440 6.057609 -17.877684 0
M  V30 74 H 8.612938 2.148252 -14.027501 0
M  V30 75 H 12.217413 9.414188 -5.249787 0
M  V30 76 H 11.050648 9.984295 -6.440045 0
M  V30 77 H 10.575563 9.784857 -4.753242 0
M  V30 78 H 12.950700 7.218550 -9.900021 0
M  V30 79 H 12.775736 8.790490 -10.767857 0
M  V30 80 H 8.037121 7.185684 -10.486757 0
M  V30 END ATOM
M  V30 BEGIN BOND
M  V30 1 1 2 1
M  V30 2 1 6 3
M  V30 3 1 9 1
M  V30 4 1 9 8
M  V30 5 1 12 2
M  V30 6 2 12 5
M  V30 7 1 15 4
M  V30 8 1 16 7
M  V30 9 1 17 4
M  V30 10 1 17 16
M  V30 11 1 18 7
M  V30 12 1 18 9
M  V30 13 1 20 16
M  V30 14 1 21 13
M  V30 15 1 22 20
M  V30 16 1 24 13
M  V30 17 2 25 11
M  V30 18 1 25 14
M  V30 19 1 26 7
M  V30 20 1 27 3
M  V30 21 1 27 5
M  V30 22 2 28 19
M  V30 23 1 29 6
M  V30 24 2 30 3
M  V30 25 1 30 12
M  V30 26 1 31 4
M  V30 27 1 31 10
M  V30 28 1 33 6
M  V30 29 1 34 32
M  V30 30 1 34 33
M  V30 31 1 35 19
M  V30 32 1 36 25
M  V30 33 1 36 31
M  V30 34 1 37 23
M  V30 35 1 37 24
M  V30 36 1 37 26
M  V30 37 1 38 32
M  V30 38 1 39 19
M  V30 39 2 39 36
M  V30 40 1 40 27
M  V30 41 1 40 29
M  V30 42 1 41 2
M  V30 43 1 41 13
M  V30 44 1 41 18 CFG=3
M  V30 45 1 41 24
M  V30 46 1 42 1
M  V30 47 1 43 1
M  V30 48 1 2 44 CFG=3
M  V30 49 1 4 45 CFG=1
M  V30 50 1 46 5
M  V30 51 1 6 47 CFG=3
M  V30 52 1 7 48 CFG=3
M  V30 53 1 49 8
M  V30 54 1 9 50 CFG=1
M  V30 55 1 51 10
M  V30 56 1 52 10
M  V30 57 1 53 10
M  V30 58 1 13 54 CFG=3
M  V30 59 1 55 15
M  V30 60 1 16 56 CFG=1
M  V30 61 1 57 17
M  V30 62 1 58 20
M  V30 63 1 59 20
M  V30 64 1 60 21
M  V30 65 1 61 22
M  V30 66 1 62 23
M  V30 67 1 24 63 CFG=1
M  V30 68 1 64 26
M  V30 69 1 65 26
M  V30 70 1 66 29
M  V30 71 1 67 29
M  V30 72 1 31 68 CFG=3
M  V30 73 1 69 34
M  V30 74 1 70 34
M  V30 75 1 71 35
M  V30 76 1 72 35
M  V30 77 1 73 35
M  V30 78 1 37 74 CFG=3
M  V30 79 1 75 38
M  V30 80 1 76 38
M  V30 81 1 77 38
M  V30 82 1 78 40
M  V30 83 1 79 40
M  V30 84 1 80 30
M  V30 END BOND
M  V30 END CTAB
M  END
>  <i_epik_Tot_Q>  (1) 
0

>  <i_epik_Tot_abs_Q>  (1) 
2

>  <i_i_glide_confnum>  (1) 
662

>  <i_i_glide_lignum>  (1) 
172

>  <i_i_glide_posenum>  (1) 
19

>  <i_i_glide_rotatable_bonds>  (1) 
17

>  <i_lp_mmshare_version>  (1) 
72125

>  <i_m_source_file_index>  (1) 
91

>  <i_f3d_flags>  (1) 
0

>  <num_sample>  (1) 
100

>  <b_lp_Chiralities_Consistent>  (1) 
1

>  <r_epik_Charging_Adjusted_Penalty>  (1) 
1.2730775069092737

>  <r_epik_Ionization_Penalty>  (1) 
0.33079184029548347

>  <r_epik_Ionization_Penalty_Charging>  (1) 
4.3976256739559524e-06

>  <r_epik_Ionization_Penalty_Neutral>  (1) 
0.33078744266980953

>  <r_epik_State_Penalty>  (1) 
1.2730731092835996

>  <r_glide_ring_energy>  (1) 
0

>  <r_i_docking_score>  (1) 
-3.4988144494995761

>  <r_i_glide_ecoul>  (1) 
-4.458788132881863

>  <r_i_glide_eff_state_penalty>  (1) 
1.2730731092835996

>  <r_i_glide_einternal>  (1) 
32.268456580623706

>  <r_i_glide_emodel>  (1) 
-31.325058673489096

>  <r_i_glide_emodel_strain>  (1) 
5.8319323127021505

>  <r_i_glide_energy>  (1) 
-40.81673324691036

>  <r_i_glide_erotb>  (1) 
0.57888693115673628

>  <r_i_glide_esite>  (1) 
-0.19500070138987768

>  <r_i_glide_evdw>  (1) 
-36.357945114028496

>  <r_i_glide_gscore>  (1) 
-4.7718875587831757

>  <r_i_glide_gscore_strain>  (1) 
0.45798307817553763

>  <r_i_glide_hbond>  (1) 
-0.17761269349411818

>  <r_i_glide_ligand_efficiency>  (1) 
-0.085336937792672582

>  <r_i_glide_ligand_efficiency_ln>  (1) 
-0.74228512898200349

>  <r_i_glide_ligand_efficiency_sa>  (1) 
-0.29426030013816223

>  <r_i_glide_lipo>  (1) 
-2.1462920412465762

>  <r_i_glide_metal>  (1) 
-0

>  <r_i_glide_rewards>  (1) 
-0.80313665635117359

>  <r_lp_Energy>  (1) 
62.565444999999997

>  <s_epik_Chemistry_Notes>  (1) 
This compound has an imine and may undergo hydrolysis. This compound contains an acetal/aminal-like group ( X-CH(R)-Y where X, Y are N, S, or O) that may be acid/base labile, releasing an aldehyde.

>  <s_epik_cmdline>  (1) 
J2VwaWtfcHl0aG9uJywgJy1waHQnLCAnMS4wJywgJy1waCcsICc3LjQnLCAnLXRuJywgJzgnLCAnLW1hJywgJzUwMCcsICctaW1hZScsICc8aW5maWxlLm1hZT4nLCAnLW9tYWUnLCAnPG91dGZpbGUubWFlPic=

>  <s_epik_input>  (1) 
W0NIM11PW0NIMl1PW0NASF0xW0NIMl1bQ0gyXW4oYzEyKVtjSF1jKG4yKVtDQEBIXTNbQ0gyXVtDQEBIXShbT0hdKU4oW0NAQF0zNDUpW0NASF0oW0NIMl1bQ0BIXShbT0hdKVtDQEBIXTVbQ0BIXTRbT0hdKVtDQEBIXShbQ0gyXVtPSF0pW05IXVtDQEBIXShbT0hdKVtDQEhdKFtDSDNdKUMoXEMoPU8pW09IXSk9Ti9DKD1PKVtDSDNd

>  <s_glide_docking_method>  (1) 
confgen

>  <s_i_glide_gridfile>  (1) 
gpcr_drd2_6luq_protein_autoprepared_prepared

>  <s_lp_Force_Field>  (1) 
S-OPLS

>  <s_lp_Variant>  (1) 
DiffSBDD_90-7

>  <s_m_source_file>  (1) 
generated_generic_title2_ligand_DiffSBDD_2026-06-23_prepared.sdf

>  <GenAI_Model>  (1) 
DiffSBDD

>  <Protein>  (1) 
generic_title2

$$$$
DiffSBDD_54
     RDKit          3D

  0  0  0  0  0  0  0  0  0  0999 V3000
M  V30 BEGIN CTAB
M  V30 COUNTS 44 46 0 0 1
M  V30 BEGIN ATOM
M  V30 1 C 1.940056 21.261632 -7.389672 0
M  V30 2 C -1.585215 21.136998 -2.178161 0
M  V30 3 C 0.815204 17.576600 -8.952116 0
M  V30 4 C -1.747382 19.441013 -5.919425 0 CFG=1
M  V30 5 C -2.706399 18.984600 -1.534682 0
M  V30 6 C -0.586011 17.470560 -8.397042 0
M  V30 7 F 2.654490 19.938944 -5.609174 0
M  V30 8 C -1.434702 19.598235 -2.156550 0
M  V30 9 C -0.255255 19.620991 -5.778478 0 CFG=2
M  V30 10 C 2.096013 19.842128 -6.813246 0
M  V30 11 C -2.369429 19.166081 -4.576972 0
M  V30 12 C 0.086929 19.449014 -4.307482 0
M  V30 13 C -1.123806 20.782585 -6.213239 0
M  V30 14 C 0.241538 18.701498 -8.119885 0
M  V30 15 C -0.247414 19.234363 -1.244912 0
M  V30 16 C -1.203159 18.996985 -3.577533 0 CFG=1
M  V30 17 F 2.964256 19.190228 -7.582832 0
M  V30 18 C 0.790053 19.004968 -6.727428 0 CFG=2
M  V30 19 H 2.907969 21.758702 -7.460351 0
M  V30 20 H 1.504545 21.246756 -8.384796 0
M  V30 21 H 1.296638 21.894295 -6.785022 0
M  V30 22 H -2.425572 21.464801 -2.788422 0
M  V30 23 H -0.693782 21.637904 -2.553536 0
M  V30 24 H -1.758552 21.522954 -1.173180 0
M  V30 25 H 0.927180 17.751851 -10.018992 0
M  V30 26 H 1.577961 16.944245 -8.501734 0
M  V30 27 H -2.163171 18.899082 -6.764859 0
M  V30 28 H -2.651607 17.895717 -1.507737 0
M  V30 29 H -2.852124 19.328519 -0.510082 0
M  V30 30 H -3.603492 19.253520 -2.092196 0
M  V30 31 H -0.752509 16.777158 -7.576070 0
M  V30 32 H -1.419949 17.590124 -9.085987 0
M  V30 33 H -2.976474 18.261297 -4.624918 0
M  V30 34 H -3.034365 19.991200 -4.327095 0
M  V30 35 H 0.474586 20.391127 -3.930127 0
M  V30 36 H 0.876028 18.709328 -4.163139 0
M  V30 37 H -1.094319 21.096153 -7.254127 0
M  V30 38 H -1.284768 21.586692 -5.497399 0
M  V30 39 H -0.055620 19.584839 -8.679920 0
M  V30 40 H 0.688265 19.647125 -1.620886 0
M  V30 41 H -0.385948 19.621831 -0.234981 0
M  V30 42 H -0.130938 18.153287 -1.163982 0
M  V30 43 H -1.093444 17.918412 -3.450268 0
M  V30 44 H 1.063303 18.037972 -6.302854 0
M  V30 END ATOM
M  V30 BEGIN BOND
M  V30 1 1 6 3
M  V30 2 1 8 2
M  V30 3 1 8 5
M  V30 4 1 9 4
M  V30 5 1 10 1
M  V30 6 1 10 7
M  V30 7 1 11 4
M  V30 8 1 9 12 CFG=1
M  V30 9 1 13 4
M  V30 10 1 13 9
M  V30 11 1 14 3
M  V30 12 1 14 6
M  V30 13 1 15 8
M  V30 14 1 16 8
M  V30 15 1 16 11
M  V30 16 1 16 12
M  V30 17 1 17 10
M  V30 18 1 18 9
M  V30 19 1 18 10
M  V30 20 1 18 14
M  V30 21 1 19 1
M  V30 22 1 20 1
M  V30 23 1 21 1
M  V30 24 1 22 2
M  V30 25 1 23 2
M  V30 26 1 24 2
M  V30 27 1 25 3
M  V30 28 1 26 3
M  V30 29 1 4 27 CFG=3
M  V30 30 1 28 5
M  V30 31 1 29 5
M  V30 32 1 30 5
M  V30 33 1 31 6
M  V30 34 1 32 6
M  V30 35 1 33 11
M  V30 36 1 34 11
M  V30 37 1 35 12
M  V30 38 1 36 12
M  V30 39 1 37 13
M  V30 40 1 38 13
M  V30 41 1 39 14
M  V30 42 1 40 15
M  V30 43 1 41 15
M  V30 44 1 42 15
M  V30 45 1 16 43 CFG=1
M  V30 46 1 18 44 CFG=1
M  V30 END BOND
M  V30 END CTAB
M  END
>  <i_epik_Tot_Q>  (1) 
0

>  <i_epik_Tot_abs_Q>  (1) 
0

>  <i_i_glide_confnum>  (1) 
33

>  <i_i_glide_lignum>  (1) 
87

>  <i_i_glide_posenum>  (1) 
389

>  <i_i_glide_rotatable_bonds>  (1) 
4

>  <i_lp_mmshare_version>  (1) 
72125

>  <i_m_source_file_index>  (1) 
55

>  <i_f3d_flags>  (1) 
0

>  <num_sample>  (1) 
100

>  <b_lp_Chiralities_Consistent>  (1) 
1

>  <r_epik_Charging_Adjusted_Penalty>  (1) 
0

>  <r_epik_Ionization_Penalty>  (1) 
0

>  <r_epik_Ionization_Penalty_Charging>  (1) 
0

>  <r_epik_Ionization_Penalty_Neutral>  (1) 
0

>  <r_epik_State_Penalty>  (1) 
-0

>  <r_glide_ring_energy>  (1) 
0.53150930068519497

>  <r_i_docking_score>  (1) 
-3.4921560911454632

>  <r_i_glide_ecoul>  (1) 
-0.057724884805956347

>  <r_i_glide_eff_state_penalty>  (1) 
-0

>  <r_i_glide_einternal>  (1) 
4.558877406418091

>  <r_i_glide_emodel>  (1) 
-10.701641507672038

>  <r_i_glide_emodel_strain>  (1) 
0

>  <r_i_glide_energy>  (1) 
-11.209793082644794

>  <r_i_glide_erotb>  (1) 
0.53627995581458066

>  <r_i_glide_esite>  (1) 
0

>  <r_i_glide_evdw>  (1) 
-11.152068197838837

>  <r_i_glide_gscore>  (1) 
-3.4921560911454632

>  <r_i_glide_gscore_strain>  (1) 
0

>  <r_i_glide_hbond>  (1) 
0

>  <r_i_glide_ligand_efficiency>  (1) 
-0.19400867173030351

>  <r_i_glide_ligand_efficiency_ln>  (1) 
-0.89764071622655195

>  <r_i_glide_ligand_efficiency_sa>  (1) 
-0.50844655683909179

>  <r_i_glide_lipo>  (1) 
-1.6174342943754667

>  <r_i_glide_metal>  (1) 
-0

>  <r_i_glide_rewards>  (1) 
-1.8447396099717417

>  <r_lp_Energy>  (1) 
23.887898999999997

>  <r_lp_tautomer_probability>  (1) 
1

>  <s_epik_cmdline>  (1) 
J2VwaWtfcHl0aG9uJywgJy1waHQnLCAnMS4wJywgJy1waCcsICc3LjQnLCAnLXRuJywgJzgnLCAnLW1hJywgJzUwMCcsICctaW1hZScsICc8aW5maWxlLm1hZT4nLCAnLW9tYWUnLCAnPG91dGZpbGUubWFlPic=

>  <s_epik_input>  (1) 
W0NIMl0xW0NIMl1bQ0hdMVtDQEBIXShDKEYpKEYpW0NIM10pW0NAQF0yM1tDQEhdKFtDSDJdMylbQ0gyXVtDQEBIXShbQ0gyXTIpQyhbQ0gzXSkoW0NIM10pW0NIM10=

>  <s_glide_docking_method>  (1) 
confgen

>  <s_i_glide_gridfile>  (1) 
gpcr_drd2_6luq_protein_autoprepared_prepared

>  <s_lp_Force_Field>  (1) 
S-OPLS

>  <s_lp_Variant>  (1) 
DiffSBDD_54-1

>  <s_m_source_file>  (1) 
generated_generic_title2_ligand_DiffSBDD_2026-06-23_prepared.sdf

>  <GenAI_Model>  (1) 
DiffSBDD

>  <Protein>  (1) 
generic_title2

$$$$
DiffSBDD_58
     RDKit          3D

  0  0  0  0  0  0  0  0  0  0999 V3000
M  V30 BEGIN CTAB
M  V30 COUNTS 61 64 0 0 1
M  V30 BEGIN ATOM
M  V30 1 C 14.797334 3.613523 -16.800687 0
M  V30 2 C 13.419280 4.491707 -19.773229 0
M  V30 3 O 12.801134 6.220406 -16.114380 0
M  V30 4 F 14.805918 2.280488 -16.784983 0
M  V30 5 F 15.741368 4.034030 -17.643020 0
M  V30 6 F 15.113743 4.044769 -15.585087 0
M  V30 7 C 13.396694 4.135228 -17.185052 0 CFG=1
M  V30 8 C 4.575409 5.090648 -20.936020 0
M  V30 9 C 5.399700 6.331429 -19.053221 0
M  V30 10 C 4.785226 8.208623 -20.702239 0
M  V30 11 C 5.750664 5.284359 -20.045078 0 CFG=2
M  V30 12 C 10.500313 5.635197 -19.776452 0 CFG=2
M  V30 13 C 4.768261 7.387873 -21.984860 0
M  V30 14 C 13.187709 6.014271 -19.606916 0 CFG=1
M  V30 15 C 13.298669 5.665638 -17.093746 0
M  V30 16 O 4.634829 9.425541 -20.785032 0
M  V30 17 C 11.739322 6.579334 -19.872151 0 CFG=1
M  V30 18 C 13.883687 7.990212 -18.038148 0
M  V30 19 C 13.851923 6.468248 -18.278265 0 CFG=2
M  V30 20 C 9.158938 7.276021 -21.221738 0
M  V30 21 C 8.151594 5.231114 -20.053871 0 CFG=1
M  V30 22 O 6.956463 5.582345 -20.738570 0
M  V30 23 C 4.668068 6.042346 -22.068609 0
M  V30 24 C 8.871595 4.123520 -20.830235 0
M  V30 25 C 10.364666 4.468433 -20.780902 0
M  V30 26 C 4.975406 7.590236 -19.318721 0
M  V30 27 C 12.934963 3.635893 -18.573849 0
M  V30 28 C 10.368728 8.214321 -21.263396 0
M  V30 29 C 9.162049 6.383808 -19.959165 0 CFG=1
M  V30 30 C 11.687245 7.435338 -21.156534 0
M  V30 31 H 13.013381 4.135604 -20.717599 0
M  V30 32 H 14.492775 4.329411 -19.876850 0
M  V30 33 H 12.702015 3.734767 -16.445592 0
M  V30 34 H 3.622145 5.165535 -20.414701 0
M  V30 35 H 4.614750 4.085965 -21.359001 0
M  V30 36 H 5.507022 6.038110 -18.019054 0
M  V30 37 H 5.865732 4.348207 -19.494899 0
M  V30 38 H 10.477315 5.222977 -18.767919 0
M  V30 39 H 4.806122 7.950563 -22.906057 0
M  V30 40 H 13.818502 6.455237 -20.380022 0
M  V30 41 H 11.553971 7.296627 -19.074858 0
M  V30 42 H 14.579764 8.239104 -17.236675 0
M  V30 43 H 14.208592 8.524451 -18.931067 0
M  V30 44 H 12.914183 8.390203 -17.746304 0
M  V30 45 H 14.898977 6.176954 -18.353416 0
M  V30 46 H 8.239695 7.862119 -21.256233 0
M  V30 47 H 9.156336 6.662198 -22.123006 0
M  V30 48 H 7.959017 4.880708 -19.037342 0
M  V30 49 H 4.648413 5.592609 -23.050812 0
M  V30 50 H 8.665075 3.148231 -20.388360 0
M  V30 51 H 8.536041 4.086658 -21.867534 0
M  V30 52 H 10.927069 3.578818 -20.512879 0
M  V30 53 H 10.700849 4.772220 -21.772106 0
M  V30 54 H 4.783365 8.243771 -18.481167 0
M  V30 55 H 11.852261 3.567853 -18.548852 0
M  V30 56 H 13.263182 2.607358 -18.723866 0
M  V30 57 H 10.302842 8.933493 -20.446879 0
M  V30 58 H 10.354846 8.794290 -22.186702 0
M  V30 59 H 8.950012 7.007767 -19.089616 0
M  V30 60 H 12.508259 8.153702 -21.159900 0
M  V30 61 H 11.826566 6.808165 -22.037360 0
M  V30 END ATOM
M  V30 BEGIN BOND
M  V30 1 1 4 1
M  V30 2 1 5 1
M  V30 3 1 6 1
M  V30 4 1 7 1
M  V30 5 1 11 8
M  V30 6 1 11 9
M  V30 7 1 13 10
M  V30 8 1 14 2
M  V30 9 2 15 3
M  V30 10 1 15 7
M  V30 11 2 16 10
M  V30 12 1 17 12
M  V30 13 1 17 14
M  V30 14 1 19 14
M  V30 15 1 19 15
M  V30 16 1 19 18
M  V30 17 1 22 11
M  V30 18 1 22 21
M  V30 19 1 23 8
M  V30 20 2 23 13
M  V30 21 1 24 21
M  V30 22 1 25 12
M  V30 23 1 25 24
M  V30 24 2 26 9
M  V30 25 1 26 10
M  V30 26 1 27 2
M  V30 27 1 27 7
M  V30 28 1 28 20
M  V30 29 1 29 12
M  V30 30 1 29 20
M  V30 31 1 29 21
M  V30 32 1 30 17
M  V30 33 1 30 28
M  V30 34 1 31 2
M  V30 35 1 32 2
M  V30 36 1 7 33 CFG=1
M  V30 37 1 34 8
M  V30 38 1 35 8
M  V30 39 1 36 9
M  V30 40 1 11 37 CFG=1
M  V30 41 1 12 38 CFG=1
M  V30 42 1 39 13
M  V30 43 1 14 40 CFG=3
M  V30 44 1 17 41 CFG=1
M  V30 45 1 42 18
M  V30 46 1 43 18
M  V30 47 1 44 18
M  V30 48 1 19 45 CFG=3
M  V30 49 1 46 20
M  V30 50 1 47 20
M  V30 51 1 21 48 CFG=1
M  V30 52 1 49 23
M  V30 53 1 50 24
M  V30 54 1 51 24
M  V30 55 1 52 25
M  V30 56 1 53 25
M  V30 57 1 54 26
M  V30 58 1 55 27
M  V30 59 1 56 27
M  V30 60 1 57 28
M  V30 61 1 58 28
M  V30 62 1 29 59 CFG=1
M  V30 63 1 60 30
M  V30 64 1 61 30
M  V30 END BOND
M  V30 END CTAB
M  END
>  <i_epik_Tot_Q>  (1) 
0

>  <i_epik_Tot_abs_Q>  (1) 
0

>  <i_i_glide_confnum>  (1) 
4

>  <i_i_glide_lignum>  (1) 
92

>  <i_i_glide_posenum>  (1) 
353

>  <i_i_glide_rotatable_bonds>  (1) 
4

>  <i_lp_mmshare_version>  (1) 
72125

>  <i_m_source_file_index>  (1) 
59

>  <i_f3d_flags>  (1) 
0

>  <num_sample>  (1) 
100

>  <b_lp_Chiralities_Consistent>  (1) 
1

>  <r_epik_Charging_Adjusted_Penalty>  (1) 
0

>  <r_epik_Ionization_Penalty>  (1) 
2.3521434305966632e-11

>  <r_epik_Ionization_Penalty_Charging>  (1) 
0

>  <r_epik_Ionization_Penalty_Neutral>  (1) 
2.3521434305966632e-11

>  <r_epik_State_Penalty>  (1) 
-0

>  <r_glide_ring_energy>  (1) 
2.0493742895280942

>  <r_i_docking_score>  (1) 
-3.4902276252842301

>  <r_i_glide_ecoul>  (1) 
-1.513631248327088

>  <r_i_glide_eff_state_penalty>  (1) 
-0

>  <r_i_glide_einternal>  (1) 
18.57688452817893

>  <r_i_glide_emodel>  (1) 
-26.001208356081069

>  <r_i_glide_emodel_strain>  (1) 
0.26651240519028363

>  <r_i_glide_energy>  (1) 
-29.651342459592055

>  <r_i_glide_erotb>  (1) 
0.33010280432778499

>  <r_i_glide_esite>  (1) 
-0.047409665608806828

>  <r_i_glide_evdw>  (1) 
-28.137711211264968

>  <r_i_glide_gscore>  (1) 
-3.4902276252842301

>  <r_i_glide_gscore_strain>  (1) 
0

>  <r_i_glide_hbond>  (1) 
0

>  <r_i_glide_ligand_efficiency>  (1) 
-0.11634092084280767

>  <r_i_glide_ligand_efficiency_ln>  (1) 
-0.79301774554044446

>  <r_i_glide_ligand_efficiency_sa>  (1) 
-0.36149829101537684

>  <r_i_glide_lipo>  (1) 
-1.2194175470564526

>  <r_i_glide_metal>  (1) 
-0

>  <r_i_glide_rewards>  (1) 
-0.91957296913444364

>  <r_lp_Energy>  (1) 
29.975919999999999

>  <r_lp_tautomer_probability>  (1) 
1

>  <s_epik_cmdline>  (1) 
J2VwaWtfcHl0aG9uJywgJy1waHQnLCAnMS4wJywgJy1waCcsICc3LjQnLCAnLXRuJywgJzgnLCAnLW1hJywgJzUwMCcsICctaW1hZScsICc8aW5maWxlLm1hZT4nLCAnLW9tYWUnLCAnPG91dGZpbGUubWFlPic=

>  <s_epik_input>  (1) 
RkMoRikoRilbQ0BIXTFDKD1PKVtDQEhdKFtDSDNdKVtDQEBIXShbQ0gyXVtDSDJdMSlbQ0BIXTJbQ0gyXVtDSDJdW0NIMl1bQ0BIXShbQ0BIXTIzKVtDQEhdKFtDSDJdW0NIMl0zKU9bQ0BASF0oW0NIXT1bQ0hdNClbQ0gyXVtDSF09W0NIXUM0PU8=

>  <s_glide_docking_method>  (1) 
confgen

>  <s_i_glide_gridfile>  (1) 
gpcr_drd2_6luq_protein_autoprepared_prepared

>  <s_lp_Force_Field>  (1) 
S-OPLS

>  <s_lp_Variant>  (1) 
DiffSBDD_58-1

>  <s_m_source_file>  (1) 
generated_generic_title2_ligand_DiffSBDD_2026-06-23_prepared.sdf

>  <GenAI_Model>  (1) 
DiffSBDD

>  <Protein>  (1) 
generic_title2

$$$$
DiffSBDD_48
     RDKit          3D

  0  0  0  0  0  0  0  0  0  0999 V3000
M  V30 BEGIN CTAB
M  V30 COUNTS 49 50 0 0 1
M  V30 BEGIN ATOM
M  V30 1 C 7.749957 7.423452 -23.100819 0
M  V30 2 S 6.716107 4.029304 -13.613692 0
M  V30 3 O 8.152695 6.650088 -23.890977 0
M  V30 4 N 9.368107 5.606303 -8.404569 0
M  V30 5 C 7.185141 5.474922 -18.078592 0
M  V30 6 C 5.402599 7.054912 -17.544126 0
M  V30 7 O 5.406910 3.998850 -12.940856 0
M  V30 8 C 3.735842 9.679778 -21.486313 0
M  V30 9 O 5.836711 8.022763 -20.303569 0
M  V30 10 O 6.975528 3.054988 -14.684712 0
M  V30 11 N 6.761217 5.605290 -14.383645 0
M  V30 12 C 8.018580 6.618373 -12.477231 0
M  V30 13 C 5.864453 8.259592 -21.707833 0 CFG=2
M  V30 14 C 7.373824 5.220110 -16.708652 0
M  V30 15 C 9.375253 6.400669 -7.409972 0
M  V30 16 N 7.988208 4.203440 -12.618443 0 CHG=-1
M  V30 17 C 6.576331 5.876676 -15.749195 0
M  V30 18 C 5.991172 6.646215 -19.979377 0
M  V30 19 C 7.299216 8.277967 -22.211521 0
M  V30 20 C 5.591206 6.800571 -16.170206 0
M  V30 21 C 6.848412 6.758858 -13.484821 0
M  V30 22 O 9.848387 7.312112 -9.947638 0
M  V30 23 C 6.199204 6.389811 -18.499651 0
M  V30 24 C 9.535738 6.145136 -9.676676 0
M  V30 25 C 9.315834 5.120432 -10.806238 0
M  V30 26 C 8.033911 5.298382 -11.656618 0 CFG=1
M  V30 27 C 5.178095 9.600015 -22.005449 0
M  V30 28 H 7.796358 4.964846 -18.808357 0
M  V30 29 H 4.646369 7.757062 -17.864484 0
M  V30 30 H 3.275325 10.627391 -21.766346 0
M  V30 31 H 3.701250 9.602393 -20.398832 0
M  V30 32 H 3.122941 8.878214 -21.898944 0
M  V30 33 H 8.957549 6.701435 -13.025311 0
M  V30 34 H 7.987111 7.472161 -11.800326 0
M  V30 35 H 5.298191 7.477265 -22.219589 0
M  V30 36 H 8.129933 4.517074 -16.391787 0
M  V30 37 H 9.268397 6.013493 -6.393636 0
M  V30 38 H 9.482812 7.481666 -7.546893 0
M  V30 39 H 5.104387 6.097744 -20.299434 0
M  V30 40 H 6.837491 6.221933 -20.520817 0
M  V30 41 H 7.944461 9.038978 -21.797135 0
M  V30 42 H 4.977872 7.307571 -15.440803 0
M  V30 43 H 5.899404 6.859125 -12.955155 0
M  V30 44 H 6.995034 7.681197 -14.047259 0
M  V30 45 H 10.175413 5.161739 -11.472211 0
M  V30 46 H 9.325526 4.115893 -10.381630 0
M  V30 47 H 7.163263 5.275950 -11.001380 0
M  V30 48 H 5.767838 10.409890 -21.584821 0
M  V30 49 H 5.175001 9.762332 -23.084174 0
M  V30 END ATOM
M  V30 BEGIN BOND
M  V30 1 2 3 1
M  V30 2 2 7 2
M  V30 3 2 10 2
M  V30 4 1 11 2
M  V30 5 1 13 9
M  V30 6 2 14 5
M  V30 7 2 15 4
M  V30 8 1 16 2
M  V30 9 1 17 11
M  V30 10 1 17 14
M  V30 11 1 18 9
M  V30 12 2 19 1
M  V30 13 1 19 13
M  V30 14 1 20 6
M  V30 15 2 20 17
M  V30 16 1 21 11
M  V30 17 1 21 12
M  V30 18 1 23 5
M  V30 19 2 23 6
M  V30 20 1 23 18
M  V30 21 1 24 4
M  V30 22 2 24 22
M  V30 23 1 25 24
M  V30 24 1 26 12
M  V30 25 1 26 16
M  V30 26 1 26 25
M  V30 27 1 27 8
M  V30 28 1 27 13
M  V30 29 1 28 5
M  V30 30 1 29 6
M  V30 31 1 30 8
M  V30 32 1 31 8
M  V30 33 1 32 8
M  V30 34 1 33 12
M  V30 35 1 34 12
M  V30 36 1 13 35 CFG=3
M  V30 37 1 36 14
M  V30 38 1 37 15
M  V30 39 1 38 15
M  V30 40 1 39 18
M  V30 41 1 40 18
M  V30 42 1 41 19
M  V30 43 1 42 20
M  V30 44 1 43 21
M  V30 45 1 44 21
M  V30 46 1 45 25
M  V30 47 1 46 25
M  V30 48 1 26 47 CFG=1
M  V30 49 1 48 27
M  V30 50 1 49 27
M  V30 END BOND
M  V30 END CTAB
M  END
>  <i_epik_Tot_Q>  (1) 
-1

>  <i_epik_Tot_abs_Q>  (1) 
1

>  <i_i_glide_confnum>  (1) 
193

>  <i_i_glide_lignum>  (1) 
78

>  <i_i_glide_posenum>  (1) 
25

>  <i_i_glide_rotatable_bonds>  (1) 
9

>  <i_lp_mmshare_version>  (1) 
72125

>  <i_m_source_file_index>  (1) 
49

>  <i_f3d_flags>  (1) 
0

>  <num_sample>  (1) 
100

>  <b_lp_Chiralities_Consistent>  (1) 
1

>  <r_epik_Charging_Adjusted_Penalty>  (1) 
1.1273595753974743

>  <r_epik_Ionization_Penalty>  (1) 
0.56367978799068119

>  <r_epik_Ionization_Penalty_Charging>  (1) 
0.56367978769873717

>  <r_epik_Ionization_Penalty_Neutral>  (1) 
2.9194397843885657e-10

>  <r_epik_State_Penalty>  (1) 
0.56367978769873717

>  <r_glide_ring_energy>  (1) 
0

>  <r_i_docking_score>  (1) 
-3.4689266158069278

>  <r_i_glide_ecoul>  (1) 
1.0436250771315227

>  <r_i_glide_eff_state_penalty>  (1) 
0.56367978769873717

>  <r_i_glide_einternal>  (1) 
7.4735122495131936

>  <r_i_glide_emodel>  (1) 
-41.948465317886708

>  <r_i_glide_emodel_strain>  (1) 
0.037732504173618509

>  <r_i_glide_energy>  (1) 
-36.989093584990229

>  <r_i_glide_erotb>  (1) 
1.0141341284107193

>  <r_i_glide_esite>  (1) 
-0.13460854984152312

>  <r_i_glide_evdw>  (1) 
-38.032718662121752

>  <r_i_glide_gscore>  (1) 
-4.0326064035056648

>  <r_i_glide_gscore_strain>  (1) 
0

>  <r_i_glide_hbond>  (1) 
0

>  <r_i_glide_ligand_efficiency>  (1) 
-0.12847876354840473

>  <r_i_glide_ligand_efficiency_ln>  (1) 
-0.80750892643497141

>  <r_i_glide_ligand_efficiency_sa>  (1) 
-0.38543629064521429

>  <r_i_glide_lipo>  (1) 
-1.870528443299295

>  <r_i_glide_metal>  (1) 
-0

>  <r_i_glide_rewards>  (1) 
-1.2965113672392063

>  <r_lp_Energy>  (1) 
50.405653999999998

>  <s_epik_Chemistry_Notes>  (1) 
This compound has an imine and may undergo hydrolysis.

>  <s_epik_cmdline>  (1) 
J2VwaWtfcHl0aG9uJywgJy1waHQnLCAnMS4wJywgJy1waCcsICc3LjQnLCAnLXRuJywgJzgnLCAnLW1hJywgJzUwMCcsICctaW1hZScsICc8aW5maWxlLm1hZT4nLCAnLW9tYWUnLCAnPG91dGZpbGUubWFlPic=

>  <s_epik_input>  (1) 
Tz1DPVtDSF1bQ0BIXShbQ0gyXVtDSDNdKU9bQ0gyXWMoW2NIXVtjSF0xKVtjSF1bY0hdYzFOKFMyKD1PKT1PKVtDSDJdW0NIMl1bQ0BASF0oW05IXTIpW0NIMl1DKD1PKU49W0NIMl0=

>  <s_glide_docking_method>  (1) 
confgen

>  <s_i_glide_gridfile>  (1) 
gpcr_drd2_6luq_protein_autoprepared_prepared

>  <s_lp_Force_Field>  (1) 
S-OPLS

>  <s_lp_Variant>  (1) 
DiffSBDD_48-2

>  <s_m_source_file>  (1) 
generated_generic_title2_ligand_DiffSBDD_2026-06-23_prepared.sdf

>  <GenAI_Model>  (1) 
DiffSBDD

>  <Protein>  (1) 
generic_title2

$$$$
DiffSBDD_46
     RDKit          3D

  0  0  0  0  0  0  0  0  0  0999 V3000
M  V30 BEGIN CTAB
M  V30 COUNTS 41 43 0 0 1
M  V30 BEGIN ATOM
M  V30 1 O 7.775410 2.590162 -14.000611 0
M  V30 2 C 9.369145 6.496904 -7.068997 0
M  V30 3 C 7.296583 3.713736 -13.869872 0
M  V30 4 F 11.111914 9.980761 -5.173021 0
M  V30 5 C 9.654128 5.783993 -12.571545 0
M  V30 6 O 7.255113 5.606434 -15.375992 0
M  V30 7 O 6.693929 7.410862 -11.985025 0
M  V30 8 C 6.844242 5.138255 -11.083565 0
M  V30 9 C 5.939024 3.929370 -13.210542 0
M  V30 10 C 7.125034 6.089373 -12.231107 0 CFG=1
M  V30 11 C 9.783227 7.763905 -7.520208 0
M  V30 12 C 11.126926 8.895699 -5.984923 0
M  V30 13 C 9.448205 5.649740 -9.350496 0
M  V30 14 S 10.177688 7.190230 -11.531766 0
M  V30 15 F 11.375411 7.815002 -5.203747 0
M  V30 16 C 7.336695 4.990187 -16.653091 0
M  V30 17 C 9.859720 6.917916 -9.807282 0
M  V30 18 C 8.031132 4.962893 -14.368783 0 CFG=1
M  V30 19 O 9.935842 8.790227 -6.628307 0
M  V30 20 C 9.200855 5.442790 -7.985027 0
M  V30 21 C 5.946223 5.132887 -12.284337 0 CFG=2
M  V30 22 C 10.029307 7.976065 -8.892769 0
M  V30 23 F 12.153910 9.065058 -6.854456 0
M  V30 24 C 8.275501 5.991535 -13.233430 0 CFG=2
M  V30 25 H 9.175577 6.334946 -6.018597 0
M  V30 26 H 10.400658 5.724872 -13.363485 0
M  V30 27 H 9.721519 4.827475 -12.059712 0
M  V30 28 H 6.801398 7.590230 -11.042293 0
M  V30 29 H 7.468269 4.257774 -10.958662 0
M  V30 30 H 6.449855 5.557966 -10.159281 0
M  V30 31 H 5.660564 3.037641 -12.651229 0
M  V30 32 H 5.191130 4.086017 -13.985024 0
M  V30 33 H 9.327026 4.836175 -10.039115 0
M  V30 34 H 6.725645 5.546883 -17.363289 0
M  V30 35 H 6.976039 3.961479 -16.638021 0
M  V30 36 H 8.363162 4.992307 -17.021902 0
M  V30 37 H 8.988450 4.672048 -14.804309 0
M  V30 38 H 8.882780 4.472334 -7.637622 0
M  V30 39 H 4.975410 5.580085 -12.132444 0
M  V30 40 H 10.344087 8.947929 -9.242119 0
M  V30 41 H 8.306372 6.962933 -13.721035 0
M  V30 END ATOM
M  V30 BEGIN BOND
M  V30 1 2 3 1
M  V30 2 1 9 3
M  V30 3 1 10 7 CFG=1
M  V30 4 1 10 8
M  V30 5 1 11 2
M  V30 6 1 12 4
M  V30 7 1 14 5
M  V30 8 1 15 12
M  V30 9 1 16 6
M  V30 10 2 17 13
M  V30 11 1 17 14
M  V30 12 1 18 3
M  V30 13 1 18 6
M  V30 14 1 19 11
M  V30 15 1 19 12
M  V30 16 2 20 2
M  V30 17 1 20 13
M  V30 18 1 21 8
M  V30 19 1 21 9
M  V30 20 1 21 10
M  V30 21 2 22 11
M  V30 22 1 22 17
M  V30 23 1 23 12
M  V30 24 1 24 5
M  V30 25 1 24 10
M  V30 26 1 24 18
M  V30 27 1 25 2
M  V30 28 1 26 5
M  V30 29 1 27 5
M  V30 30 1 28 7
M  V30 31 1 29 8
M  V30 32 1 30 8
M  V30 33 1 31 9
M  V30 34 1 32 9
M  V30 35 1 33 13
M  V30 36 1 34 16
M  V30 37 1 35 16
M  V30 38 1 36 16
M  V30 39 1 18 37 CFG=3
M  V30 40 1 38 20
M  V30 41 1 21 39 CFG=1
M  V30 42 1 40 22
M  V30 43 1 24 41 CFG=3
M  V30 END BOND
M  V30 END CTAB
M  END
>  <i_epik_Tot_Q>  (1) 
0

>  <i_epik_Tot_abs_Q>  (1) 
0

>  <i_i_glide_confnum>  (1) 
78

>  <i_i_glide_lignum>  (1) 
75

>  <i_i_glide_posenum>  (1) 
205

>  <i_i_glide_rotatable_bonds>  (1) 
7

>  <i_lp_mmshare_version>  (1) 
72125

>  <i_m_source_file_index>  (1) 
47

>  <i_f3d_flags>  (1) 
0

>  <num_sample>  (1) 
100

>  <b_lp_Chiralities_Consistent>  (1) 
1

>  <r_epik_Charging_Adjusted_Penalty>  (1) 
0

>  <r_epik_Ionization_Penalty>  (1) 
3.9372517810782557e-08

>  <r_epik_Ionization_Penalty_Charging>  (1) 
0

>  <r_epik_Ionization_Penalty_Neutral>  (1) 
3.9372517810782557e-08

>  <r_epik_State_Penalty>  (1) 
-0

>  <r_glide_ring_energy>  (1) 
0

>  <r_i_docking_score>  (1) 
-3.467898684830355

>  <r_i_glide_ecoul>  (1) 
-6.2908901648170659

>  <r_i_glide_eff_state_penalty>  (1) 
-0

>  <r_i_glide_einternal>  (1) 
6.7095351477641891

>  <r_i_glide_emodel>  (1) 
-42.274905221274345

>  <r_i_glide_emodel_strain>  (1) 
1.1985469133760205

>  <r_i_glide_energy>  (1) 
-38.160492085992125

>  <r_i_glide_erotb>  (1) 
0.58490147517832547

>  <r_i_glide_esite>  (1) 
0

>  <r_i_glide_evdw>  (1) 
-31.869601921175057

>  <r_i_glide_gscore>  (1) 
-3.467898684830355

>  <r_i_glide_gscore_strain>  (1) 
0

>  <r_i_glide_hbond>  (1) 
-0.16

>  <r_i_glide_ligand_efficiency>  (1) 
-0.14449577853459813

>  <r_i_glide_ligand_efficiency_ln>  (1) 
-0.83002728678140336

>  <r_i_glide_ligand_efficiency_sa>  (1) 
-0.4167979490055172

>  <r_i_glide_lipo>  (1) 
-0.8924315429492472

>  <r_i_glide_metal>  (1) 
-0

>  <r_i_glide_rewards>  (1) 
-0.4632549962781205

>  <r_lp_Energy>  (1) 
18.733408999999998

>  <r_lp_tautomer_probability>  (1) 
1

>  <s_epik_cmdline>  (1) 
J2VwaWtfcHl0aG9uJywgJy1waHQnLCAnMS4wJywgJy1waCcsICc3LjQnLCAnLXRuJywgJzgnLCAnLW1hJywgJzUwMCcsICctaW1hZScsICc8aW5maWxlLm1hZT4nLCAnLW9tYWUnLCAnPG91dGZpbGUubWFlPic=

>  <s_epik_input>  (1) 
W09IXUMxMltDSF0oW0NIMl0xKVtDSDJdQyg9TylbQ0BASF0oT1tDSDNdKVtDQEBIXTJbQ0gyXVNjKFtjSF0zKVtjSF1bY0hdW2NIXWMzT0MoRikoRilG

>  <s_glide_docking_method>  (1) 
confgen

>  <s_i_glide_gridfile>  (1) 
gpcr_drd2_6luq_protein_autoprepared_prepared

>  <s_lp_Force_Field>  (1) 
S-OPLS

>  <s_lp_Variant>  (1) 
DiffSBDD_46-1

>  <s_m_source_file>  (1) 
generated_generic_title2_ligand_DiffSBDD_2026-06-23_prepared.sdf

>  <GenAI_Model>  (1) 
DiffSBDD

>  <Protein>  (1) 
generic_title2

$$$$
DiffSBDD_56
     RDKit          3D

  0  0  0  0  0  0  0  0  0  0999 V3000
M  V30 BEGIN CTAB
M  V30 COUNTS 88 91 0 0 1
M  V30 BEGIN ATOM
M  V30 1 C 7.194523 4.370963 -20.286682 0 CFG=1
M  V30 2 C 10.643002 4.331526 -18.152861 0
M  V30 3 C 18.062816 4.811731 -22.979901 0
M  V30 4 C 15.129340 0.816263 -21.413675 0
M  V30 5 C 9.665947 4.960581 -19.196887 0 CFG=1
M  V30 6 C 13.647458 0.894862 -21.118667 0
M  V30 7 F 4.430461 6.389897 -16.449717 0
M  V30 8 C 6.972529 5.174400 -17.344693 0
M  V30 9 C 14.085029 5.957139 -19.475848 0 CFG=2
M  V30 10 O 7.390008 7.053601 -19.877222 0
M  V30 11 C 15.078610 6.254556 -21.812210 0
M  V30 12 F 15.435169 1.374889 -22.583417 0
M  V30 13 O 10.921302 5.231383 -17.098764 0
M  V30 14 C 11.732361 6.194819 -20.424219 0 CFG=2
M  V30 15 F 12.485810 1.640927 -19.105862 0
M  V30 16 O 9.662747 5.879292 -21.487732 0
M  V30 17 C 13.984025 6.562325 -18.055074 0
M  V30 18 C 4.998184 6.809090 -17.574154 0
M  V30 19 S 6.370751 5.994498 -19.924746 0
M  V30 20 C 15.800523 1.474647 -20.191227 0 CFG=2
M  V30 21 N 14.818271 1.513742 -19.102308 0
M  V30 22 O 5.201839 6.145685 -20.804153 0
M  V30 23 F 15.487738 -0.468171 -21.458717 0
M  V30 24 C 14.106517 0.145060 -17.186382 0
M  V30 25 C 10.472900 5.256195 -20.521306 0 CFG=2
M  V30 26 C 7.664535 3.906703 -17.888599 0
M  V30 27 O 10.575060 8.354386 -20.577772 0
M  V30 28 C 16.408701 2.881460 -20.435954 0
M  V30 29 C 14.434229 0.177649 -18.662519 0 CFG=1
M  V30 30 O 12.813298 5.423910 -19.872479 0
M  V30 31 C 7.431696 4.143641 -21.797946 0
M  V30 32 C 8.361207 4.054155 -19.284722 0 CFG=1
M  V30 33 C 11.423682 7.568006 -19.765255 0
M  V30 34 F 5.775411 7.832245 -17.252164 0
M  V30 35 C 5.790184 5.646699 -18.208917 0 CFG=1
M  V30 36 O 6.383353 3.389704 -22.378226 0
M  V30 37 C 15.015041 4.727465 -19.367100 0
M  V30 38 N 16.008064 5.113378 -21.610443 0 CFG=1 CHG=1
M  V30 39 C 15.421815 4.064879 -20.714286 0 CFG=1
M  V30 40 C 13.570575 0.951684 -19.617154 0 CFG=2
M  V30 41 C 14.721203 6.935398 -20.486566 0
M  V30 42 F 4.031650 7.227776 -18.384948 0
M  V30 43 C 16.541377 4.627279 -22.913199 0
M  V30 44 H 6.417628 3.646163 -20.043509 0
M  V30 45 H 11.577435 4.009619 -18.598654 0
M  V30 46 H 10.289346 3.395466 -17.728790 0
M  V30 47 H 18.455376 4.446489 -23.928085 0
M  V30 48 H 18.336369 5.863882 -22.893069 0
M  V30 49 H 18.575921 4.268522 -22.186555 0
M  V30 50 H 9.340993 5.924328 -18.812126 0
M  V30 51 H 13.085380 0.047951 -21.512991 0
M  V30 52 H 13.212715 1.807196 -21.527525 0
M  V30 53 H 6.607720 4.962905 -16.338928 0
M  V30 54 H 7.695809 5.981583 -17.230536 0
M  V30 55 H 14.178958 5.908453 -22.323046 0
M  V30 56 H 15.546827 6.995529 -22.462576 0
M  V30 57 H 10.153052 5.322666 -16.555405 0
M  V30 58 H 12.063332 6.407945 -21.441498 0
M  V30 59 H 9.430598 6.740806 -21.155608 0
M  V30 60 H 14.965835 6.858186 -17.684657 0
M  V30 61 H 13.359204 7.446670 -17.980576 0
M  V30 62 H 13.585281 5.833039 -17.348822 0
M  V30 63 H 16.628624 0.836705 -19.876020 0
M  V30 64 H 13.413607 -0.672302 -16.998955 0
M  V30 65 H 15.007644 -0.009553 -16.594623 0
M  V30 66 H 13.635720 1.073348 -16.858982 0
M  V30 67 H 10.786307 4.304501 -20.952862 0
M  V30 68 H 6.921454 3.109672 -17.942902 0
M  V30 69 H 8.339134 3.551439 -17.115009 0
M  V30 70 H 11.032883 8.588390 -21.372228 0
M  V30 71 H 17.121341 2.749987 -21.245802 0
M  V30 72 H 17.041955 3.136476 -19.585898 0
M  V30 73 H 14.988644 -0.680363 -19.039499 0
M  V30 74 H 7.477312 5.090941 -22.335123 0
M  V30 75 H 8.364284 3.609358 -21.978844 0
M  V30 76 H 8.717555 3.059673 -19.556385 0
M  V30 77 H 10.979104 7.439331 -18.785157 0
M  V30 78 H 12.305177 8.184733 -19.630016 0
M  V30 79 H 5.093013 4.821154 -18.332955 0
M  V30 80 H 6.438306 2.494058 -22.081111 0
M  V30 81 H 15.927015 5.029019 -18.849603 0
M  V30 82 H 14.538007 4.003052 -18.709063 0
M  V30 83 H 14.530962 3.680852 -21.210901 0
M  V30 84 H 14.085675 7.793272 -20.689185 0
M  V30 85 H 15.632393 7.350486 -20.052838 0
M  V30 86 H 16.274703 3.589195 -23.098341 0
M  V30 87 H 16.093177 5.170613 -23.746164 0
M  V30 88 H 16.803678 5.489344 -21.115115 0
M  V30 END ATOM
M  V30 BEGIN BOND
M  V30 1 1 5 2
M  V30 2 1 6 4
M  V30 3 1 12 4
M  V30 4 1 13 2
M  V30 5 1 17 9
M  V30 6 1 18 7
M  V30 7 1 19 1
M  V30 8 2 19 10
M  V30 9 1 20 4
M  V30 10 1 21 20
M  V30 11 2 22 19
M  V30 12 1 23 4
M  V30 13 1 25 5
M  V30 14 1 25 14
M  V30 15 1 25 16
M  V30 16 1 26 8
M  V30 17 1 28 20
M  V30 18 1 29 21
M  V30 19 1 29 24
M  V30 20 1 9 30 CFG=3
M  V30 21 1 30 14
M  V30 22 1 31 1
M  V30 23 1 32 1
M  V30 24 1 32 5
M  V30 25 1 32 26
M  V30 26 1 33 14
M  V30 27 1 33 27
M  V30 28 1 34 18
M  V30 29 1 35 8
M  V30 30 1 35 18
M  V30 31 1 35 19
M  V30 32 1 36 31
M  V30 33 1 37 9
M  V30 34 1 38 11
M  V30 35 1 39 28
M  V30 36 1 39 37
M  V30 37 1 39 38
M  V30 38 1 40 6
M  V30 39 1 40 15 CFG=3
M  V30 40 1 40 21
M  V30 41 1 40 29
M  V30 42 1 41 9
M  V30 43 1 41 11
M  V30 44 1 42 18
M  V30 45 1 43 3
M  V30 46 1 43 38
M  V30 47 1 1 44 CFG=1
M  V30 48 1 45 2
M  V30 49 1 46 2
M  V30 50 1 47 3
M  V30 51 1 48 3
M  V30 52 1 49 3
M  V30 53 1 5 50 CFG=1
M  V30 54 1 51 6
M  V30 55 1 52 6
M  V30 56 1 53 8
M  V30 57 1 54 8
M  V30 58 1 55 11
M  V30 59 1 56 11
M  V30 60 1 57 13
M  V30 61 1 14 58 CFG=3
M  V30 62 1 59 16
M  V30 63 1 60 17
M  V30 64 1 61 17
M  V30 65 1 62 17
M  V30 66 1 20 63 CFG=1
M  V30 67 1 64 24
M  V30 68 1 65 24
M  V30 69 1 66 24
M  V30 70 1 25 67 CFG=3
M  V30 71 1 68 26
M  V30 72 1 69 26
M  V30 73 1 70 27
M  V30 74 1 71 28
M  V30 75 1 72 28
M  V30 76 1 29 73 CFG=3
M  V30 77 1 74 31
M  V30 78 1 75 31
M  V30 79 1 32 76 CFG=3
M  V30 80 1 77 33
M  V30 81 1 78 33
M  V30 82 1 35 79 CFG=3
M  V30 83 1 80 36
M  V30 84 1 81 37
M  V30 85 1 82 37
M  V30 86 1 39 83 CFG=3
M  V30 87 1 84 41
M  V30 88 1 85 41
M  V30 89 1 86 43
M  V30 90 1 87 43
M  V30 91 1 38 88 CFG=1
M  V30 END BOND
M  V30 END CTAB
M  END
>  <i_epik_Tot_Q>  (1) 
1

>  <i_epik_Tot_abs_Q>  (1) 
1

>  <i_i_glide_confnum>  (1) 
44

>  <i_i_glide_lignum>  (1) 
90

>  <i_i_glide_posenum>  (1) 
289

>  <i_i_glide_rotatable_bonds>  (1) 
16

>  <i_lp_mmshare_version>  (1) 
72125

>  <i_m_source_file_index>  (1) 
57

>  <i_f3d_flags>  (1) 
0

>  <num_sample>  (1) 
100

>  <b_lp_Chiralities_Consistent>  (1) 
1

>  <r_epik_Charging_Adjusted_Penalty>  (1) 
0.01878207797614901

>  <r_epik_Ionization_Penalty>  (1) 
0.019451196131951093

>  <r_epik_Ionization_Penalty_Charging>  (1) 
0.01878207797614901

>  <r_epik_Ionization_Penalty_Neutral>  (1) 
0.0006691181558020811

>  <r_epik_State_Penalty>  (1) 
-0

>  <r_glide_ring_energy>  (1) 
0

>  <r_i_docking_score>  (1) 
-3.4661825264931232

>  <r_i_glide_ecoul>  (1) 
-2.486737681795776

>  <r_i_glide_eff_state_penalty>  (1) 
-0

>  <r_i_glide_einternal>  (1) 
13.13770799191559

>  <r_i_glide_emodel>  (1) 
-22.417691995680478

>  <r_i_glide_emodel_strain>  (1) 
1.7240601831457667

>  <r_i_glide_energy>  (1) 
-25.404326095813552

>  <r_i_glide_erotb>  (1) 
0.34042408851888512

>  <r_i_glide_esite>  (1) 
0

>  <r_i_glide_evdw>  (1) 
-22.917588414017775

>  <r_i_glide_gscore>  (1) 
-3.4661825264931232

>  <r_i_glide_gscore_strain>  (1) 
0

>  <r_i_glide_hbond>  (1) 
0

>  <r_i_glide_ligand_efficiency>  (1) 
-0.080608895964956351

>  <r_i_glide_ligand_efficiency_ln>  (1) 
-0.72800605777272731

>  <r_i_glide_ligand_efficiency_sa>  (1) 
-0.28240504977354336

>  <r_i_glide_lipo>  (1) 
-1.332364182430408

>  <r_i_glide_metal>  (1) 
-0

>  <r_i_glide_rewards>  (1) 
-0.95535235961134501

>  <r_lp_Energy>  (1) 
36.609592999999997

>  <r_lp_tautomer_probability>  (1) 
1

>  <s_epik_cmdline>  (1) 
J2VwaWtfcHl0aG9uJywgJy1waHQnLCAnMS4wJywgJy1waCcsICc3LjQnLCAnLXRuJywgJzgnLCAnLW1hJywgJzUwMCcsICctaW1hZScsICc8aW5maWxlLm1hZT4nLCAnLW9tYWUnLCAnPG91dGZpbGUubWFlPic=

>  <s_epik_input>  (1) 
RkMoRikoRilbQ0BASF0xW0NIMl1bQ0gyXVtDQEBIXShbQ0BASF0oUzEoPU8pPU8pW0NIMl1bT0hdKVtDQEBIXShbQ0gyXVtPSF0pW0NAQEhdKFtPSF0pW0NAQEhdKFtDSDJdW09IXSlPW0NAQF0yKFtDSDNdKVtDSDJdW0NAQEhdKE4oW0NIMl1bQ0gyXTIpW0NIMl1bQ0gzXSlbQ0gyXVtDQEhdKEMoRikoRilbQ0gyXTMpTihbQ0BAXTM0RilbQ0BIXTRbQ0gzXQ==

>  <s_glide_docking_method>  (1) 
confgen

>  <s_i_glide_gridfile>  (1) 
gpcr_drd2_6luq_protein_autoprepared_prepared

>  <s_lp_Force_Field>  (1) 
S-OPLS

>  <s_lp_Variant>  (1) 
DiffSBDD_56-2

>  <s_m_source_file>  (1) 
generated_generic_title2_ligand_DiffSBDD_2026-06-23_prepared.sdf

>  <GenAI_Model>  (1) 
DiffSBDD

>  <Protein>  (1) 
generic_title2

$$$$
DiffSBDD_24
     RDKit          3D

  0  0  0  0  0  0  0  0  0  0999 V3000
M  V30 BEGIN CTAB
M  V30 COUNTS 68 69 0 0 1
M  V30 BEGIN ATOM
M  V30 1 C 12.899618 1.893781 -19.134098 0
M  V30 2 C 16.082376 8.152860 -22.149630 0
M  V30 3 C 14.585734 8.551101 -18.098300 0
M  V30 4 O 14.862900 8.126560 -21.491254 0
M  V30 5 C 13.227067 6.613165 -17.083467 0
M  V30 6 C 15.793523 2.589350 -22.620356 0
M  V30 7 C 15.187346 2.381628 -20.144533 0 CFG=2
M  V30 8 C 15.305600 9.088124 -19.346324 0
M  V30 9 C 17.128037 8.966582 -21.829580 0
M  V30 10 C 13.985662 7.150368 -18.313591 0
M  V30 11 C 14.897956 3.907223 -17.509061 0 CFG=1
M  V30 12 C 13.681677 0.153302 -17.354153 0
M  V30 13 C 14.423653 -0.825228 -18.268068 0
M  V30 14 C 16.597606 9.484836 -19.370844 0
M  V30 15 C 16.249094 2.081127 -21.240011 0
M  V30 16 O 15.733995 2.031990 -18.870915 0
M  V30 17 C 14.469115 9.153641 -20.600035 0
M  V30 18 C 13.605355 1.636593 -17.787336 0 CFG=1
M  V30 19 C 14.202832 4.376685 -16.210227 0
M  V30 20 C 14.109689 5.908545 -16.034405 0
M  V30 21 C 17.169388 9.990208 -20.693125 0
M  V30 22 C 17.431163 9.433540 -18.149909 0
M  V30 23 C 13.824815 1.683638 -20.341582 0
M  V30 24 O 16.434827 0.683994 -21.362187 0
M  V30 25 C 18.721175 9.820388 -18.106602 0
M  V30 26 O 16.226221 4.390657 -17.429692 0
M  V30 27 C 14.972210 2.366454 -17.703348 0 CFG=2
M  V30 28 C 17.616068 2.699162 -20.896668 0
M  V30 29 H 12.009233 1.270809 -19.225557 0
M  V30 30 H 12.544829 2.925148 -19.149210 0
M  V30 31 H 16.109656 7.444870 -22.964794 0
M  V30 32 H 13.775409 9.238973 -17.879615 0
M  V30 33 H 15.157058 8.524130 -17.185026 0
M  V30 34 H 12.445498 5.925796 -17.409961 0
M  V30 35 H 12.694624 7.440680 -16.611968 0
M  V30 36 H 15.615860 3.665378 -22.604632 0
M  V30 37 H 16.550349 2.395865 -23.381550 0
M  V30 38 H 14.874750 2.108252 -22.954281 0
M  V30 39 H 15.024833 3.457868 -20.171251 0
M  V30 40 H 18.028165 8.899610 -22.423091 0
M  V30 41 H 14.776073 6.472214 -18.627015 0
M  V30 42 H 13.278930 7.178548 -19.142095 0
M  V30 43 H 14.383667 4.354683 -18.354324 0
M  V30 44 H 14.175293 0.117709 -16.385030 0
M  V30 45 H 12.672712 -0.224629 -17.185220 0
M  V30 46 H 14.575410 -1.767907 -17.744434 0
M  V30 47 H 13.852062 -1.056806 -19.164757 0
M  V30 48 H 15.407056 -0.458765 -18.559753 0
M  V30 49 H 13.411982 9.038864 -20.363222 0
M  V30 50 H 14.544772 10.125716 -21.086083 0
M  V30 51 H 12.955386 2.065423 -17.028071 0
M  V30 52 H 13.187153 3.989648 -16.160620 0
M  V30 53 H 14.720233 3.952589 -15.348987 0
M  V30 54 H 13.671499 6.091692 -15.052470 0
M  V30 55 H 15.098979 6.361980 -15.992598 0
M  V30 56 H 16.621620 10.880292 -21.003897 0
M  V30 57 H 18.196304 10.328167 -20.640236 0
M  V30 58 H 17.002024 9.071953 -17.238046 0
M  V30 59 H 13.330918 2.067976 -21.233821 0
M  V30 60 H 13.964591 0.621732 -20.520939 0
M  V30 61 H 15.589783 0.276373 -21.468944 0
M  V30 62 H 19.279577 9.761556 -17.185042 0
M  V30 63 H 19.234300 10.196027 -18.971961 0
M  V30 64 H 16.191664 5.335621 -17.412954 0
M  V30 65 H 15.513274 1.965466 -16.845422 0
M  V30 66 H 17.537060 3.776931 -20.751144 0
M  V30 67 H 18.032114 2.272735 -19.984895 0
M  V30 68 H 18.342737 2.523645 -21.690697 0
M  V30 END ATOM
M  V30 BEGIN BOND
M  V30 1 1 4 2
M  V30 2 1 8 3
M  V30 3 2 9 2
M  V30 4 1 10 3
M  V30 5 1 10 5
M  V30 6 1 13 12
M  V30 7 2 14 8
M  V30 8 1 15 6
M  V30 9 1 15 7
M  V30 10 1 16 7
M  V30 11 1 17 4
M  V30 12 1 17 8
M  V30 13 1 18 1
M  V30 14 1 18 12
M  V30 15 1 19 11
M  V30 16 1 20 5
M  V30 17 1 20 19
M  V30 18 1 21 9
M  V30 19 1 21 14
M  V30 20 1 22 14
M  V30 21 1 23 1
M  V30 22 1 23 7
M  V30 23 1 24 15
M  V30 24 2 25 22
M  V30 25 1 26 11
M  V30 26 1 27 11
M  V30 27 1 27 16
M  V30 28 1 27 18
M  V30 29 1 28 15
M  V30 30 1 29 1
M  V30 31 1 30 1
M  V30 32 1 31 2
M  V30 33 1 32 3
M  V30 34 1 33 3
M  V30 35 1 34 5
M  V30 36 1 35 5
M  V30 37 1 36 6
M  V30 38 1 37 6
M  V30 39 1 38 6
M  V30 40 1 7 39 CFG=1
M  V30 41 1 40 9
M  V30 42 1 41 10
M  V30 43 1 42 10
M  V30 44 1 11 43 CFG=3
M  V30 45 1 44 12
M  V30 46 1 45 12
M  V30 47 1 46 13
M  V30 48 1 47 13
M  V30 49 1 48 13
M  V30 50 1 49 17
M  V30 51 1 50 17
M  V30 52 1 18 51 CFG=1
M  V30 53 1 52 19
M  V30 54 1 53 19
M  V30 55 1 54 20
M  V30 56 1 55 20
M  V30 57 1 56 21
M  V30 58 1 57 21
M  V30 59 1 58 22
M  V30 60 1 59 23
M  V30 61 1 60 23
M  V30 62 1 61 24
M  V30 63 1 62 25
M  V30 64 1 63 25
M  V30 65 1 64 26
M  V30 66 1 27 65 CFG=1
M  V30 67 1 66 28
M  V30 68 1 67 28
M  V30 69 1 68 28
M  V30 END BOND
M  V30 END CTAB
M  END
>  <i_epik_Tot_Q>  (1) 
0

>  <i_epik_Tot_abs_Q>  (1) 
0

>  <i_i_glide_confnum>  (1) 
745

>  <i_i_glide_lignum>  (1) 
42

>  <i_i_glide_posenum>  (1) 
176

>  <i_i_glide_rotatable_bonds>  (1) 
12

>  <i_lp_mmshare_version>  (1) 
72125

>  <i_m_source_file_index>  (1) 
25

>  <i_f3d_flags>  (1) 
0

>  <num_sample>  (1) 
100

>  <b_lp_Chiralities_Consistent>  (1) 
1

>  <r_epik_Charging_Adjusted_Penalty>  (1) 
0

>  <r_epik_Ionization_Penalty>  (1) 
1.101119789916782e-07

>  <r_epik_Ionization_Penalty_Charging>  (1) 
0

>  <r_epik_Ionization_Penalty_Neutral>  (1) 
1.101119789916782e-07

>  <r_epik_State_Penalty>  (1) 
-0

>  <r_glide_ring_energy>  (1) 
1.2053301093634785

>  <r_i_docking_score>  (1) 
-3.4624578823018801

>  <r_i_glide_ecoul>  (1) 
-5.845639152630369

>  <r_i_glide_eff_state_penalty>  (1) 
-0

>  <r_i_glide_einternal>  (1) 
13.430054748394781

>  <r_i_glide_emodel>  (1) 
-25.479053521348987

>  <r_i_glide_emodel_strain>  (1) 
0.47357120310687151

>  <r_i_glide_energy>  (1) 
-27.565847852399173

>  <r_i_glide_erotb>  (1) 
1.1402384900908482

>  <r_i_glide_esite>  (1) 
0

>  <r_i_glide_evdw>  (1) 
-21.720208699768804

>  <r_i_glide_gscore>  (1) 
-3.4624578823018801

>  <r_i_glide_gscore_strain>  (1) 
0

>  <r_i_glide_hbond>  (1) 
-0.33752117390097802

>  <r_i_glide_ligand_efficiency>  (1) 
-0.12365921008221001

>  <r_i_glide_ligand_efficiency_ln>  (1) 
-0.79923694141619606

>  <r_i_glide_ligand_efficiency_sa>  (1) 
-0.37550219360649467

>  <r_i_glide_lipo>  (1) 
-1.5699370724269348

>  <r_i_glide_metal>  (1) 
-0

>  <r_i_glide_rewards>  (1) 
-0.73238181818181924

>  <r_lp_Energy>  (1) 
28.105841999999999

>  <r_lp_tautomer_probability>  (1) 
1

>  <s_epik_cmdline>  (1) 
J2VwaWtfcHl0aG9uJywgJy1waHQnLCAnMS4wJywgJy1waCcsICc3LjQnLCAnLXRuJywgJzgnLCAnLW1hJywgJzUwMCcsICctaW1hZScsICc8aW5maWxlLm1hZT4nLCAnLW9tYWUnLCAnPG91dGZpbGUubWFlPic=

>  <s_epik_input>  (1) 
W0NIM11DKFtPSF0pKFtDSDNdKVtDQEBIXTFPW0NASF0oW0NAQEhdKFtDSDJdW0NIMl0xKVtDSDJdW0NIM10pW0NASF0oW09IXSlbQ0gyXVtDSDJdW0NIMl1bQ0gyXVtDSDJdQzI9QyhbQ0hdPVtDSDJdKVtDSDJdW0NIXT1bQ0hdT1tDSDJdMg==

>  <s_glide_docking_method>  (1) 
confgen

>  <s_i_glide_gridfile>  (1) 
gpcr_drd2_6luq_protein_autoprepared_prepared

>  <s_lp_Force_Field>  (1) 
S-OPLS

>  <s_lp_Variant>  (1) 
DiffSBDD_24-1

>  <s_m_source_file>  (1) 
generated_generic_title2_ligand_DiffSBDD_2026-06-23_prepared.sdf

>  <GenAI_Model>  (1) 
DiffSBDD

>  <Protein>  (1) 
generic_title2

$$$$
DiffSBDD_42
     RDKit          3D

  0  0  0  0  0  0  0  0  0  0999 V3000
M  V30 BEGIN CTAB
M  V30 COUNTS 66 71 0 0 1
M  V30 BEGIN ATOM
M  V30 1 C 10.472469 8.844996 -8.946406 0
M  V30 2 C 9.024344 6.018741 -10.940693 0 CFG=2
M  V30 3 C 11.561526 7.785084 -6.723137 0 CFG=2
M  V30 4 C 11.267967 6.312326 -6.791185 0
M  V30 5 C 9.765519 7.469814 -8.615917 0 CFG=1
M  V30 6 N 9.039461 4.117113 -15.769704 0
M  V30 7 C 6.609229 5.173083 -11.702623 0 CFG=2
M  V30 8 C 10.140678 8.389903 -6.336805 0
M  V30 9 C 11.093307 7.588943 -10.532651 0
M  V30 10 C 7.638037 5.164117 -12.831061 0 CFG=2
M  V30 11 F 8.428985 2.457778 -13.567294 0
M  V30 12 C 8.654721 6.278873 -12.456170 0 CFG=1
M  V30 13 S 7.592605 5.189852 -10.197783 0
M  V30 14 O 9.375171 5.205140 -7.778572 0
M  V30 15 C 9.016558 8.058160 -7.393102 0
M  V30 16 C 7.418114 2.571306 -14.497317 0
M  V30 17 C 6.957051 5.159009 -14.233802 0
M  V30 18 C 10.348000 3.483527 -19.207236 0
M  V30 19 C 6.845987 3.866725 -14.989433 0
M  V30 20 C 12.423466 8.209439 -8.042178 0
M  V30 21 C 9.584114 7.266496 -10.153859 0 CFG=1
M  V30 22 C 7.829489 3.441707 -15.712561 0
M  V30 23 C 8.138903 7.710654 -12.751485 0
M  V30 24 C 11.606157 4.111250 -19.126007 0
M  V30 25 C 11.744902 8.518380 -9.461877 0 CFG=2
M  V30 26 C 12.001333 4.746971 -17.934321 0
M  V30 27 O 6.492397 6.205714 -14.679344 0
M  V30 28 C 9.877876 4.122351 -16.894383 0
M  V30 29 C 10.397613 6.143123 -8.044846 0 CFG=2
M  V30 30 C 9.482191 3.489227 -18.095140 0
M  V30 31 F 6.764198 1.410265 -14.858147 0
M  V30 32 C 5.648304 3.991872 -11.721168 0
M  V30 33 C 11.140362 4.751303 -16.818937 0
M  V30 34 H 9.898448 9.519810 -9.583828 0
M  V30 35 H 10.708426 9.590227 -8.207327 0
M  V30 36 H 9.786689 5.244880 -10.930618 0
M  V30 37 H 12.174550 7.995962 -5.850219 0
M  V30 38 H 10.741028 5.990955 -5.888372 0
M  V30 39 H 12.177453 5.711921 -6.816619 0
M  V30 40 H 9.493254 4.390768 -14.909253 0
M  V30 41 H 6.025397 6.094099 -11.716548 0
M  V30 42 H 9.826453 7.978341 -5.377255 0
M  V30 43 H 10.203317 9.463133 -6.156346 0
M  V30 44 H 11.059156 7.989260 -11.537388 0
M  V30 45 H 11.786732 6.790574 -10.649086 0
M  V30 46 H 8.215229 4.271277 -12.683166 0
M  V30 47 H 9.549040 6.135938 -13.064472 0
M  V30 48 H 8.673434 5.326598 -8.409266 0
M  V30 49 H 8.321646 7.340206 -6.960118 0
M  V30 50 H 8.445833 8.959773 -7.613938 0
M  V30 51 H 10.047673 2.994491 -20.121768 0
M  V30 52 H 12.879567 9.153805 -7.747642 0
M  V30 53 H 13.300447 7.590218 -8.179932 0
M  V30 54 H 8.913577 8.057474 -10.461742 0
M  V30 55 H 7.265000 7.964944 -12.153216 0
M  V30 56 H 8.903403 8.458716 -12.552913 0
M  V30 57 H 7.876916 7.868303 -13.794149 0
M  V30 58 H 12.268854 4.105006 -19.979719 0
M  V30 59 H 12.226917 9.369288 -9.938913 0
M  V30 60 H 12.967706 5.229002 -17.873921 0
M  V30 61 H 10.976597 5.641081 -8.788109 0
M  V30 62 H 8.521746 3.000832 -18.162561 0
M  V30 63 H 4.947984 4.055954 -12.555494 0
M  V30 64 H 6.184676 3.046281 -11.807730 0
M  V30 65 H 5.047252 3.958167 -10.809122 0
M  V30 66 H 11.450587 5.233403 -15.903416 0
M  V30 END ATOM
M  V30 BEGIN BOND
M  V30 1 1 4 3
M  V30 2 1 5 1
M  V30 3 1 8 3
M  V30 4 1 10 7
M  V30 5 1 12 2
M  V30 6 1 12 10
M  V30 7 1 13 2
M  V30 8 1 13 7
M  V30 9 1 5 15 CFG=1
M  V30 10 1 15 8
M  V30 11 1 16 11
M  V30 12 1 17 10
M  V30 13 1 19 16
M  V30 14 1 19 17
M  V30 15 1 20 3
M  V30 16 1 21 2
M  V30 17 1 21 5
M  V30 18 1 21 9
M  V30 19 1 22 6
M  V30 20 1 22 16
M  V30 21 2 22 19
M  V30 22 1 23 12
M  V30 23 2 24 18
M  V30 24 1 25 1
M  V30 25 1 25 9
M  V30 26 1 25 20
M  V30 27 1 26 24
M  V30 28 2 27 17
M  V30 29 1 28 6
M  V30 30 1 29 4
M  V30 31 1 29 5
M  V30 32 1 29 14
M  V30 33 1 30 18
M  V30 34 2 30 28
M  V30 35 1 31 16
M  V30 36 1 32 7
M  V30 37 2 33 26
M  V30 38 1 33 28
M  V30 39 1 34 1
M  V30 40 1 35 1
M  V30 41 1 2 36 CFG=3
M  V30 42 1 3 37 CFG=1
M  V30 43 1 38 4
M  V30 44 1 39 4
M  V30 45 1 40 6
M  V30 46 1 7 41 CFG=3
M  V30 47 1 42 8
M  V30 48 1 43 8
M  V30 49 1 44 9
M  V30 50 1 45 9
M  V30 51 1 10 46 CFG=1
M  V30 52 1 12 47 CFG=3
M  V30 53 1 48 14
M  V30 54 1 49 15
M  V30 55 1 50 15
M  V30 56 1 51 18
M  V30 57 1 52 20
M  V30 58 1 53 20
M  V30 59 1 21 54 CFG=3
M  V30 60 1 55 23
M  V30 61 1 56 23
M  V30 62 1 57 23
M  V30 63 1 58 24
M  V30 64 1 25 59 CFG=3
M  V30 65 1 60 26
M  V30 66 1 29 61 CFG=3
M  V30 67 1 62 30
M  V30 68 1 63 32
M  V30 69 1 64 32
M  V30 70 1 65 32
M  V30 71 1 66 33
M  V30 END BOND
M  V30 END CTAB
M  END
>  <i_epik_Tot_Q>  (1) 
0

>  <i_epik_Tot_abs_Q>  (1) 
0

>  <i_i_glide_confnum>  (1) 
56

>  <i_i_glide_lignum>  (1) 
68

>  <i_i_glide_posenum>  (1) 
312

>  <i_i_glide_rotatable_bonds>  (1) 
6

>  <i_lp_mmshare_version>  (1) 
72125

>  <i_m_source_file_index>  (1) 
43

>  <i_f3d_flags>  (1) 
0

>  <num_sample>  (1) 
100

>  <b_lp_Chiralities_Consistent>  (1) 
1

>  <r_epik_Charging_Adjusted_Penalty>  (1) 
0

>  <r_epik_Ionization_Penalty>  (1) 
0.00038533319757004503

>  <r_epik_Ionization_Penalty_Charging>  (1) 
0

>  <r_epik_Ionization_Penalty_Neutral>  (1) 
0.00038533319757004503

>  <r_epik_State_Penalty>  (1) 
-0

>  <r_glide_ring_energy>  (1) 
0

>  <r_i_docking_score>  (1) 
-3.454370762192863

>  <r_i_glide_ecoul>  (1) 
0.33716376605175474

>  <r_i_glide_eff_state_penalty>  (1) 
-0

>  <r_i_glide_einternal>  (1) 
24.542928209892182

>  <r_i_glide_emodel>  (1) 
-0.93546117833121478

>  <r_i_glide_emodel_strain>  (1) 
2.4486128911119067

>  <r_i_glide_energy>  (1) 
-11.738815930825387

>  <r_i_glide_erotb>  (1) 
0.45088358732322803

>  <r_i_glide_esite>  (1) 
0

>  <r_i_glide_evdw>  (1) 
-12.075979696877141

>  <r_i_glide_gscore>  (1) 
-3.454370762192863

>  <r_i_glide_gscore_strain>  (1) 
0

>  <r_i_glide_hbond>  (1) 
0

>  <r_i_glide_ligand_efficiency>  (1) 
-0.10467790188463222

>  <r_i_glide_ligand_efficiency_ln>  (1) 
-0.76823417173711217

>  <r_i_glide_ligand_efficiency_sa>  (1) 
-0.33575796388689266

>  <r_i_glide_lipo>  (1) 
-1.822449464462176

>  <r_i_glide_metal>  (1) 
-0

>  <r_i_glide_rewards>  (1) 
-1.5295804651178213

>  <r_lp_Energy>  (1) 
137.051188

>  <r_lp_tautomer_probability>  (1) 
1

>  <s_epik_cmdline>  (1) 
J2VwaWtfcHl0aG9uJywgJy1waHQnLCAnMS4wJywgJy1waCcsICc3LjQnLCAnLXRuJywgJzgnLCAnLW1hJywgJzUwMCcsICctaW1hZScsICc8aW5maWxlLm1hZT4nLCAnLW9tYWUnLCAnPG91dGZpbGUubWFlPic=

>  <s_epik_input>  (1) 
W09IXVtDQEBIXTFbQ0gyXVtDQEhdKFtDSDJdW0NIMl0yKVtDSDJdW0NASF0oW0NIMl1DMTIzKVtDSDJdW0NASF0zW0NAQEhdNFtDQEhdKFtDSDNdKVtDQEBIXShbQ0BIXShTNClbQ0gzXSlDKD1PKUMoQzUoRilGKT1DNVtOSF1jNltjSF1bY0hdW2NIXVtjSF1bY0hdNg==

>  <s_glide_docking_method>  (1) 
confgen

>  <s_i_glide_gridfile>  (1) 
gpcr_drd2_6luq_protein_autoprepared_prepared

>  <s_lp_Force_Field>  (1) 
S-OPLS

>  <s_lp_Variant>  (1) 
DiffSBDD_42-1

>  <s_m_source_file>  (1) 
generated_generic_title2_ligand_DiffSBDD_2026-06-23_prepared.sdf

>  <GenAI_Model>  (1) 
DiffSBDD

>  <Protein>  (1) 
generic_title2

$$$$
DiffSBDD_35
     RDKit          3D

  0  0  0  0  0  0  0  0  0  0999 V3000
M  V30 BEGIN CTAB
M  V30 COUNTS 57 59 0 0 1
M  V30 BEGIN ATOM
M  V30 1 O 14.966745 0.287044 -18.486433 0
M  V30 2 N 6.708069 4.003032 -12.937767 0
M  V30 3 C 5.777614 6.608981 -12.366662 0
M  V30 4 C 7.521048 3.240352 -15.412300 0
M  V30 5 C 15.092215 3.988349 -16.288928 0
M  V30 6 C 14.575451 0.536750 -17.177851 0
M  V30 7 C 7.028072 5.500999 -16.257266 0
M  V30 8 C 13.270211 5.756495 -16.465160 0
M  V30 9 C 6.196787 4.320071 -11.725914 0
M  V30 10 Cl 10.719720 5.831215 -17.088753 0
M  V30 11 O 15.143404 1.711881 -16.692890 0
M  V30 12 C 8.887244 2.088020 -18.943095 0
M  V30 13 C 12.517879 3.979635 -18.050710 0
M  V30 14 C 6.305855 6.302298 -13.630201 0
M  V30 15 S 11.274332 3.707727 -19.372563 0
M  V30 16 C 14.709850 5.404781 -16.476644 0
M  V30 17 C 8.048912 3.332003 -16.849647 0 CFG=2
M  V30 18 C 7.315216 4.566300 -17.450223 0 CFG=2
M  V30 19 C 14.588701 2.945859 -16.956558 0
M  V30 20 C 6.593855 1.529866 -18.003758 0
M  V30 21 C 8.017620 2.013481 -17.664723 0 CFG=1
M  V30 22 N 7.332681 4.644738 -15.130662 0
M  V30 23 C 12.306115 5.160109 -17.180686 0
M  V30 24 O 12.004459 3.108409 -20.576932 0
M  V30 25 C 6.765721 4.984101 -13.876718 0
M  V30 26 O 10.979633 1.423341 -17.985555 0
M  V30 27 C 10.384516 2.257800 -18.667324 0
M  V30 28 C 14.198231 -0.734327 -19.098598 0
M  V30 29 F 8.032019 5.171220 -18.396607 0
M  V30 30 C 13.500544 3.031311 -17.953146 0
M  V30 31 C 5.722821 5.598902 -11.397078 0
M  V30 32 H 5.422546 7.604658 -12.144580 0
M  V30 33 H 6.575242 2.707089 -15.346418 0
M  V30 34 H 8.238514 2.775309 -14.737113 0
M  V30 35 H 15.890447 3.810556 -15.585252 0
M  V30 36 H 14.939921 -0.279120 -16.554491 0
M  V30 37 H 13.488892 0.564138 -17.067296 0
M  V30 38 H 5.990277 5.837268 -16.267660 0
M  V30 39 H 7.688510 6.365511 -16.248278 0
M  V30 40 H 13.007523 6.615346 -15.863524 0
M  V30 41 H 6.166578 3.525601 -10.996457 0
M  V30 42 H 8.547459 2.896610 -19.590215 0
M  V30 43 H 8.772633 1.170210 -19.520210 0
M  V30 44 H 6.367484 7.064538 -14.390820 0
M  V30 45 H 15.166327 5.783903 -17.391389 0
M  V30 46 H 15.169878 5.961858 -15.659571 0
M  V30 47 H 9.092930 3.616523 -16.726536 0
M  V30 48 H 6.377023 4.284289 -17.924186 0
M  V30 49 H 6.091600 2.193159 -18.707348 0
M  V30 50 H 6.622973 0.541446 -18.463215 0
M  V30 51 H 5.968150 1.447100 -17.115722 0
M  V30 52 H 8.452966 1.243155 -17.025063 0
M  V30 53 H 14.611498 -0.971547 -20.078698 0
M  V30 54 H 14.196683 -1.646000 -18.501879 0
M  V30 55 H 13.166465 -0.409616 -19.238349 0
M  V30 56 H 13.440027 2.222497 -18.663979 0
M  V30 57 H 5.326348 5.802527 -10.412450 0
M  V30 END ATOM
M  V30 BEGIN BOND
M  V30 1 1 6 1
M  V30 2 2 9 2
M  V30 3 1 11 6
M  V30 4 1 14 3
M  V30 5 1 15 13
M  V30 6 1 16 5
M  V30 7 1 16 8
M  V30 8 1 17 4
M  V30 9 1 18 7
M  V30 10 1 18 17
M  V30 11 2 19 5
M  V30 12 1 19 11
M  V30 13 1 21 12
M  V30 14 1 21 17
M  V30 15 1 21 20
M  V30 16 1 22 4
M  V30 17 1 22 7
M  V30 18 2 23 8
M  V30 19 1 23 10
M  V30 20 1 23 13
M  V30 21 2 24 15
M  V30 22 1 25 2
M  V30 23 2 25 14
M  V30 24 1 25 22
M  V30 25 1 27 12
M  V30 26 1 15 27 CFG=1
M  V30 27 2 27 26
M  V30 28 1 28 1
M  V30 29 1 29 18
M  V30 30 2 30 13
M  V30 31 1 30 19
M  V30 32 2 31 3
M  V30 33 1 31 9
M  V30 34 1 32 3
M  V30 35 1 33 4
M  V30 36 1 34 4
M  V30 37 1 35 5
M  V30 38 1 36 6
M  V30 39 1 37 6
M  V30 40 1 38 7
M  V30 41 1 39 7
M  V30 42 1 40 8
M  V30 43 1 41 9
M  V30 44 1 42 12
M  V30 45 1 43 12
M  V30 46 1 44 14
M  V30 47 1 45 16
M  V30 48 1 46 16
M  V30 49 1 17 47 CFG=1
M  V30 50 1 18 48 CFG=3
M  V30 51 1 49 20
M  V30 52 1 50 20
M  V30 53 1 51 20
M  V30 54 1 21 52 CFG=1
M  V30 55 1 53 28
M  V30 56 1 54 28
M  V30 57 1 55 28
M  V30 58 1 56 30
M  V30 59 1 57 31
M  V30 END BOND
M  V30 END CTAB
M  END
>  <i_epik_Tot_Q>  (1) 
0

>  <i_epik_Tot_abs_Q>  (1) 
0

>  <i_i_glide_confnum>  (1) 
133

>  <i_i_glide_lignum>  (1) 
59

>  <i_i_glide_posenum>  (1) 
249

>  <i_i_glide_rotatable_bonds>  (1) 
9

>  <i_lp_mmshare_version>  (1) 
72125

>  <i_m_source_file_index>  (1) 
36

>  <i_f3d_flags>  (1) 
0

>  <num_sample>  (1) 
100

>  <b_lp_Chiralities_Consistent>  (1) 
1

>  <r_epik_Charging_Adjusted_Penalty>  (1) 
0.099723663867704454

>  <r_epik_Ionization_Penalty>  (1) 
0.0997236638898443

>  <r_epik_Ionization_Penalty_Charging>  (1) 
0

>  <r_epik_Ionization_Penalty_Neutral>  (1) 
0.0997236638898443

>  <r_epik_State_Penalty>  (1) 
0.099723663867704454

>  <r_glide_ring_energy>  (1) 
0

>  <r_i_docking_score>  (1) 
-3.4524247028838837

>  <r_i_glide_ecoul>  (1) 
-0.91326985407735961

>  <r_i_glide_eff_state_penalty>  (1) 
0.099723663867704454

>  <r_i_glide_einternal>  (1) 
4.0431883085762026

>  <r_i_glide_emodel>  (1) 
-40.400884166286858

>  <r_i_glide_emodel_strain>  (1) 
0

>  <r_i_glide_energy>  (1) 
-34.818454795696837

>  <r_i_glide_erotb>  (1) 
0.73452498433328617

>  <r_i_glide_esite>  (1) 
0

>  <r_i_glide_evdw>  (1) 
-33.905184941619481

>  <r_i_glide_gscore>  (1) 
-3.5521483667515881

>  <r_i_glide_gscore_strain>  (1) 
0

>  <r_i_glide_hbond>  (1) 
0

>  <r_i_glide_ligand_efficiency>  (1) 
-0.11136853880270593

>  <r_i_glide_ligand_efficiency_ln>  (1) 
-0.77862757461086607

>  <r_i_glide_ligand_efficiency_sa>  (1) 
-0.34985097307992058

>  <r_i_glide_lipo>  (1) 
-1.5614041078211316

>  <r_i_glide_metal>  (1) 
-0

>  <r_i_glide_rewards>  (1) 
-0.89301951807116464

>  <r_lp_Energy>  (1) 
24.480764999999998

>  <r_lp_tautomer_probability>  (1) 
1

>  <s_epik_Chemistry_Notes>  (1) 
This compound contains an acetal/aminal-like group ( X-CH(R)-Y where X, Y are N, S, or O) that may be acid/base labile, releasing an aldehyde.

>  <s_epik_cmdline>  (1) 
J2VwaWtfcHl0aG9uJywgJy1waHQnLCAnMS4wJywgJy1waCcsICc3LjQnLCAnLXRuJywgJzgnLCAnLW1hJywgJzUwMCcsICctaW1hZScsICc8aW5maWxlLm1hZT4nLCAnLW9tYWUnLCAnPG91dGZpbGUubWFlPic=

>  <s_epik_input>  (1) 
Q2xDMT1bQ0hdW0NIMl1bQ0hdPUMoT1tDSDJdT1tDSDNdKVtDSF09QzFbU0BAXSg9TylDKD1PKVtDSDJdW0NASF0oW0NIM10pW0NAQEhdMltDSDJdTihbQ0gyXVtDQEhdMkYpYzNuW2NIXVtjSF1bY0hdW2NIXTM=

>  <s_glide_docking_method>  (1) 
confgen

>  <s_i_glide_gridfile>  (1) 
gpcr_drd2_6luq_protein_autoprepared_prepared

>  <s_lp_Force_Field>  (1) 
S-OPLS

>  <s_lp_Variant>  (1) 
DiffSBDD_35-1

>  <s_m_source_file>  (1) 
generated_generic_title2_ligand_DiffSBDD_2026-06-23_prepared.sdf

>  <GenAI_Model>  (1) 
DiffSBDD

>  <Protein>  (1) 
generic_title2

$$$$
DiffSBDD_17
     RDKit          3D

  0  0  0  0  0  0  0  0  0  0999 V3000
M  V30 BEGIN CTAB
M  V30 COUNTS 42 43 0 0 1
M  V30 BEGIN ATOM
M  V30 1 Cl 12.285091 5.008906 -19.551099 0
M  V30 2 C 10.662912 5.332075 -17.411086 0
M  V30 3 C 12.113188 4.939774 -17.773494 0 CFG=2
M  V30 4 C 6.315486 0.332256 -13.139172 0
M  V30 5 C 13.955797 3.473877 -17.143741 0
M  V30 6 O 10.572806 5.539463 -16.001768 0
M  V30 7 C 7.125758 4.484779 -15.108589 0
M  V30 8 Cl 8.573707 4.790289 -11.353114 0
M  V30 9 C 15.760580 5.252670 -16.983731 0
M  V30 10 O 6.175409 2.656343 -12.482601 0
M  V30 11 O 8.175409 -0.007571 -14.385083 0
M  V30 12 C 9.458096 5.190227 -15.264068 0
M  V30 13 O 15.949494 6.394677 -17.454032 0
M  V30 14 C 6.032625 4.014929 -12.872973 0
M  V30 15 C 9.542398 5.190227 -13.857319 0
M  V30 16 C 8.436713 4.815218 -13.077270 0
M  V30 17 C 14.316556 4.869219 -16.607990 0 CFG=1
M  V30 18 C 8.237345 4.847692 -15.890714 0
M  V30 19 C 13.212952 5.824242 -17.139566 0
M  V30 20 O 16.644877 4.390226 -16.785081 0 CHG=-1
M  V30 21 C 5.792957 1.724040 -13.489113 0
M  V30 22 C 12.443766 3.508907 -17.336405 0
M  V30 23 C 7.224533 4.453705 -13.704060 0
M  V30 24 N 7.811945 0.390232 -13.298633 0
M  V30 25 H 10.018909 4.533655 -17.775650 0
M  V30 26 H 10.371055 6.252363 -17.917762 0
M  V30 27 H 6.083930 0.029961 -12.117147 0
M  V30 28 H 5.916408 -0.409926 -13.829888 0
M  V30 29 H 14.258820 2.679627 -16.460393 0
M  V30 30 H 14.440177 3.286426 -18.103570 0
M  V30 31 H 6.199082 4.219423 -15.585020 0
M  V30 32 H 5.953014 4.633257 -11.979084 0
M  V30 33 H 5.100133 4.165808 -13.419783 0
M  V30 34 H 10.469043 5.465862 -13.376104 0
M  V30 35 H 14.253370 4.845327 -15.519271 0
M  V30 36 H 8.148795 4.860992 -16.964268 0
M  V30 37 H 13.566652 6.555574 -17.866492 0
M  V30 38 H 12.831345 6.408852 -16.302792 0
M  V30 39 H 4.707489 1.694405 -13.585022 0
M  V30 40 H 6.184703 2.005515 -14.465709 0
M  V30 41 H 11.963802 3.304508 -16.385020 0
M  V30 42 H 12.088985 2.753453 -18.038341 0
M  V30 END ATOM
M  V30 BEGIN BOND
M  V30 1 1 3 1 CFG=3
M  V30 2 1 3 2
M  V30 3 1 6 2
M  V30 4 1 12 6
M  V30 5 2 13 9
M  V30 6 1 14 10
M  V30 7 2 15 12
M  V30 8 1 16 8
M  V30 9 1 16 15
M  V30 10 1 17 5
M  V30 11 1 17 9
M  V30 12 2 18 7
M  V30 13 1 18 12
M  V30 14 1 19 3
M  V30 15 1 19 17
M  V30 16 1 20 9
M  V30 17 1 21 4
M  V30 18 1 21 10
M  V30 19 1 22 3
M  V30 20 1 22 5
M  V30 21 1 23 7
M  V30 22 1 23 14
M  V30 23 2 23 16
M  V30 24 1 24 4
M  V30 25 2 24 11
M  V30 26 1 25 2
M  V30 27 1 26 2
M  V30 28 1 27 4
M  V30 29 1 28 4
M  V30 30 1 29 5
M  V30 31 1 30 5
M  V30 32 1 31 7
M  V30 33 1 32 14
M  V30 34 1 33 14
M  V30 35 1 34 15
M  V30 36 1 17 35 CFG=1
M  V30 37 1 36 18
M  V30 38 1 37 19
M  V30 39 1 38 19
M  V30 40 1 39 21
M  V30 41 1 40 21
M  V30 42 1 41 22
M  V30 43 1 42 22
M  V30 END BOND
M  V30 END CTAB
M  END
>  <i_epik_Tot_Q>  (1) 
-1

>  <i_epik_Tot_abs_Q>  (1) 
1

>  <i_i_glide_confnum>  (1) 
345

>  <i_i_glide_lignum>  (1) 
33

>  <i_i_glide_posenum>  (1) 
269

>  <i_i_glide_rotatable_bonds>  (1) 
9

>  <i_lp_mmshare_version>  (1) 
72125

>  <i_m_source_file_index>  (1) 
18

>  <i_f3d_flags>  (1) 
0

>  <num_sample>  (1) 
100

>  <b_lp_Chiralities_Consistent>  (1) 
1

>  <r_epik_Charging_Adjusted_Penalty>  (1) 
0.00012381605781317179

>  <r_epik_Ionization_Penalty>  (1) 
0.00012381605830283167

>  <r_epik_Ionization_Penalty_Charging>  (1) 
0.00012381605781317179

>  <r_epik_Ionization_Penalty_Neutral>  (1) 
4.8965987375008979e-13

>  <r_epik_State_Penalty>  (1) 
-0

>  <r_glide_ring_energy>  (1) 
0

>  <r_i_docking_score>  (1) 
-3.4394733128576043

>  <r_i_glide_ecoul>  (1) 
-3.9309304954622886

>  <r_i_glide_eff_state_penalty>  (1) 
-0

>  <r_i_glide_einternal>  (1) 
4.0619744318829447

>  <r_i_glide_emodel>  (1) 
-27.946719782171662

>  <r_i_glide_emodel_strain>  (1) 
2.3727536062971026

>  <r_i_glide_energy>  (1) 
-26.009704173376743

>  <r_i_glide_erotb>  (1) 
0.96174401237487195

>  <r_i_glide_esite>  (1) 
0

>  <r_i_glide_evdw>  (1) 
-22.078773677914455

>  <r_i_glide_gscore>  (1) 
-3.4394733128576043

>  <r_i_glide_gscore_strain>  (1) 
0

>  <r_i_glide_hbond>  (1) 
-0.16

>  <r_i_glide_ligand_efficiency>  (1) 
-0.14331138803573351

>  <r_i_glide_ligand_efficiency_ln>  (1) 
-0.82322379091299724

>  <r_i_glide_ligand_efficiency_sa>  (1) 
-0.41338157562938987

>  <r_i_glide_lipo>  (1) 
-1.3938857962826141

>  <r_i_glide_metal>  (1) 
-0

>  <r_i_glide_rewards>  (1) 
-1.1537532707347959

>  <r_lp_Energy>  (1) 
30.153981999999999

>  <r_lp_tautomer_probability>  (1) 
1

>  <s_epik_cmdline>  (1) 
J2VwaWtfcHl0aG9uJywgJy1waHQnLCAnMS4wJywgJy1waCcsICc3LjQnLCAnLXRuJywgJzgnLCAnLW1hJywgJzUwMCcsICctaW1hZScsICc8aW5maWxlLm1hZT4nLCAnLW9tYWUnLCAnPG91dGZpbGUubWFlPic=

>  <s_epik_input>  (1) 
Tz1DKFtPSF0pW0NAQEhdKFtDSDJdW0NIMl0xKVtDSDJdW0NAXTEoQ2wpW0NIMl1PYzJbY0hdYyhDbCljKFtjSF1bY0hdMilbQ0gyXU9bQ0gyXVtDSDJdTj1P

>  <s_glide_docking_method>  (1) 
confgen

>  <s_i_glide_gridfile>  (1) 
gpcr_drd2_6luq_protein_autoprepared_prepared

>  <s_lp_Force_Field>  (1) 
S-OPLS

>  <s_lp_Variant>  (1) 
DiffSBDD_17-2

>  <s_m_source_file>  (1) 
generated_generic_title2_ligand_DiffSBDD_2026-06-23_prepared.sdf

>  <GenAI_Model>  (1) 
DiffSBDD

>  <Protein>  (1) 
generic_title2

$$$$
DiffSBDD_8
     RDKit          3D

  0  0  0  0  0  0  0  0  0  0999 V3000
M  V30 BEGIN CTAB
M  V30 COUNTS 61 63 0 0 1
M  V30 BEGIN ATOM
M  V30 1 C 9.330715 5.190982 -10.987234 0
M  V30 2 O 11.179436 7.248698 -7.177313 0
M  V30 3 C 6.373993 0.344969 -15.428284 0
M  V30 4 N 8.975409 7.216161 -6.800969 0
M  V30 5 C 8.489454 4.731635 -15.848472 0 CFG=2
M  V30 6 C 7.068215 2.714895 -14.041118 0
M  V30 7 N 10.975671 7.590237 -9.852231 0 CHG=1
M  V30 8 C 9.067306 6.274275 -19.284777 0
M  V30 9 C 7.945513 4.010154 -18.833845 0
M  V30 10 O 10.292553 4.551640 -17.309042 0
M  V30 11 C 7.247036 1.272897 -16.020674 0
M  V30 12 C 8.183684 6.783881 -20.432081 0
M  V30 13 O 8.480476 3.332119 -15.971566 0
M  V30 14 S 6.885737 3.990244 -11.525999 0
M  V30 15 C 7.112017 5.307455 -15.464994 0
M  V30 16 C 7.446115 3.996845 -13.270377 0 CFG=2
M  V30 17 N 7.890344 5.190240 -10.811299 0
M  V30 18 F 6.038821 -0.785373 -16.092916 0
M  V30 19 C 11.408105 5.305281 -16.863071 0
M  V30 20 C 7.998639 5.188588 -9.360103 0
M  V30 21 C 6.936518 5.278300 -13.946416 0
M  V30 22 C 9.449399 5.637338 -9.521157 0
M  V30 23 C 8.314910 5.395751 -18.260013 0 CFG=1
M  V30 24 N 9.106362 5.324274 -17.020965 0
M  V30 25 C 10.031218 7.198846 -7.614952 0
M  V30 26 C 5.848988 0.587046 -14.150378 0
M  V30 27 C 6.188893 1.761896 -13.456467 0
M  V30 28 C 7.601973 2.459614 -15.345420 0
M  V30 29 C 9.792238 7.094645 -9.129295 0 CFG=1
M  V30 30 H 9.731442 4.191658 -11.166956 0
M  V30 31 H 9.670269 5.915710 -11.726984 0
M  V30 32 H 9.112610 7.240815 -5.801507 0
M  V30 33 H 8.025728 7.190231 -7.185072 0
M  V30 34 H 9.191058 4.940805 -15.041784 0
M  V30 35 H 11.135142 8.550466 -9.585021 0
M  V30 36 H 11.772502 7.038866 -9.570938 0
M  V30 37 H 9.479954 7.149994 -18.785022 0
M  V30 38 H 9.921423 5.730563 -19.690295 0
M  V30 39 H 7.395327 4.102485 -19.768971 0
M  V30 40 H 8.827088 3.401201 -19.034771 0
M  V30 41 H 7.298582 3.454119 -18.157403 0
M  V30 42 H 7.650178 1.075423 -17.002909 0
M  V30 43 H 8.750354 7.445952 -21.087501 0
M  V30 44 H 7.801305 5.967806 -21.044629 0
M  V30 45 H 7.331892 7.348606 -20.051754 0
M  V30 46 H 7.062315 6.349117 -15.784752 0
M  V30 47 H 6.317812 4.787823 -15.994123 0
M  V30 48 H 8.534108 3.996391 -13.235278 0
M  V30 49 H 12.323899 4.756277 -17.080828 0
M  V30 50 H 11.467299 6.270445 -17.368667 0
M  V30 51 H 11.374308 5.474598 -15.785924 0
M  V30 52 H 7.372502 5.915489 -8.856356 0
M  V30 53 H 7.873854 4.204444 -8.915717 0
M  V30 54 H 7.438223 6.137672 -13.499788 0
M  V30 55 H 5.875390 5.408646 -13.731098 0
M  V30 56 H 10.097097 4.929504 -9.000611 0
M  V30 57 H 7.387764 5.916304 -18.021516 0
M  V30 58 H 5.179966 -0.131739 -13.698597 0
M  V30 59 H 5.775439 1.926684 -12.478105 0
M  V30 60 H 8.975409 7.757316 -9.403830 0
M  V30 61 H 10.822277 7.525347 -10.847160 0
M  V30 END ATOM
M  V30 BEGIN BOND
M  V30 1 2 11 3
M  V30 2 1 12 8
M  V30 3 1 13 5
M  V30 4 1 15 5
M  V30 5 1 16 6
M  V30 6 1 16 14
M  V30 7 1 17 1
M  V30 8 1 17 14
M  V30 9 1 18 3
M  V30 10 1 19 10
M  V30 11 1 20 17
M  V30 12 1 21 15
M  V30 13 1 21 16
M  V30 14 1 22 1
M  V30 15 1 22 20
M  V30 16 1 23 8
M  V30 17 1 23 9
M  V30 18 1 24 5
M  V30 19 1 24 10
M  V30 20 1 24 23
M  V30 21 2 25 2
M  V30 22 1 25 4
M  V30 23 1 26 3
M  V30 24 1 27 6
M  V30 25 2 27 26
M  V30 26 2 28 6
M  V30 27 1 28 11
M  V30 28 1 28 13
M  V30 29 1 29 7
M  V30 30 1 29 22
M  V30 31 1 29 25
M  V30 32 1 30 1
M  V30 33 1 31 1
M  V30 34 1 32 4
M  V30 35 1 33 4
M  V30 36 1 5 34 CFG=1
M  V30 37 1 35 7
M  V30 38 1 36 7
M  V30 39 1 37 8
M  V30 40 1 38 8
M  V30 41 1 39 9
M  V30 42 1 40 9
M  V30 43 1 41 9
M  V30 44 1 42 11
M  V30 45 1 43 12
M  V30 46 1 44 12
M  V30 47 1 45 12
M  V30 48 1 46 15
M  V30 49 1 47 15
M  V30 50 1 16 48 CFG=1
M  V30 51 1 49 19
M  V30 52 1 50 19
M  V30 53 1 51 19
M  V30 54 1 52 20
M  V30 55 1 53 20
M  V30 56 1 54 21
M  V30 57 1 55 21
M  V30 58 1 56 22
M  V30 59 1 23 57 CFG=1
M  V30 60 1 58 26
M  V30 61 1 59 27
M  V30 62 1 29 60 CFG=3
M  V30 63 1 61 7
M  V30 END BOND
M  V30 END CTAB
M  END
>  <i_epik_Tot_Q>  (1) 
1

>  <i_epik_Tot_abs_Q>  (1) 
1

>  <i_i_glide_confnum>  (1) 
512

>  <i_i_glide_lignum>  (1) 
15

>  <i_i_glide_posenum>  (1) 
292

>  <i_i_glide_rotatable_bonds>  (1) 
8

>  <i_lp_mmshare_version>  (1) 
72125

>  <i_m_source_file_index>  (1) 
9

>  <i_f3d_flags>  (1) 
0

>  <num_sample>  (1) 
100

>  <b_lp_Chiralities_Consistent>  (1) 
1

>  <r_epik_Charging_Adjusted_Penalty>  (1) 
1.6197365423892824

>  <r_epik_Ionization_Penalty>  (1) 
0.73483714514200482

>  <r_epik_Ionization_Penalty_Charging>  (1) 
0.26301760809738622

>  <r_epik_Ionization_Penalty_Neutral>  (1) 
0.47181953704461854

>  <r_epik_State_Penalty>  (1) 
1.3567189342918962

>  <r_glide_ring_energy>  (1) 
2.1725327972353821

>  <r_i_docking_score>  (1) 
-3.4390700206316049

>  <r_i_glide_ecoul>  (1) 
-5.3853328930064821

>  <r_i_glide_eff_state_penalty>  (1) 
1.3567189342918962

>  <r_i_glide_einternal>  (1) 
5.0307241077784326

>  <r_i_glide_emodel>  (1) 
-44.417586110938196

>  <r_i_glide_emodel_strain>  (1) 
0.24314320676496237

>  <r_i_glide_energy>  (1) 
-34.631158785584816

>  <r_i_glide_erotb>  (1) 
0.54307168116637361

>  <r_i_glide_esite>  (1) 
-0.11566908265928884

>  <r_i_glide_evdw>  (1) 
-29.245825892578331

>  <r_i_glide_gscore>  (1) 
-4.7957889549235011

>  <r_i_glide_gscore_strain>  (1) 
0

>  <r_i_glide_hbond>  (1) 
-0.16

>  <r_i_glide_ligand_efficiency>  (1) 
-0.11858862140108982

>  <r_i_glide_ligand_efficiency_ln>  (1) 
-0.78745982743336529

>  <r_i_glide_ligand_efficiency_sa>  (1) 
-0.36434181686545708

>  <r_i_glide_lipo>  (1) 
-1.590894412992774

>  <r_i_glide_metal>  (1) 
-0

>  <r_i_glide_rewards>  (1) 
-1.2022059118579216

>  <r_lp_Energy>  (1) 
41.059792999999999

>  <s_epik_Chemistry_Notes>  (1) 
This compound contains an acetal/aminal-like group ( X-CH(R)-Y where X, Y are N, S, or O) that may be acid/base labile, releasing an aldehyde. This compound has a N-S or N-O group and may undergo hydrolysis at high or low pH.

>  <s_epik_cmdline>  (1) 
J2VwaWtfcHl0aG9uJywgJy1waHQnLCAnMS4wJywgJy1waCcsICc3LjQnLCAnLXRuJywgJzgnLCAnLW1hJywgJzUwMCcsICctaW1hZScsICc8aW5maWxlLm1hZT4nLCAnLW9tYWUnLCAnPG91dGZpbGUubWFlPic=

>  <s_epik_input>  (1) 
Tz1DKFtOSDJdKVtDQEBIXShbTkgyXSlbQ0hdKFtDSDJdMSlbQ0gyXU4xU1tDQEBIXTJbQ0gyXVtDSDJdW0NASF0oTihPW0NIM10pW0NASF0oW0NIM10pW0NIMl1bQ0gzXSlPYyhjMjMpW2NIXWMoRilbY0hdW2NIXTM=

>  <s_glide_docking_method>  (1) 
confgen

>  <s_i_glide_gridfile>  (1) 
gpcr_drd2_6luq_protein_autoprepared_prepared

>  <s_lp_Force_Field>  (1) 
S-OPLS

>  <s_lp_Variant>  (1) 
DiffSBDD_8-5

>  <s_m_source_file>  (1) 
generated_generic_title2_ligand_DiffSBDD_2026-06-23_prepared.sdf

>  <GenAI_Model>  (1) 
DiffSBDD

>  <Protein>  (1) 
generic_title2

$$$$
DiffSBDD_96
     RDKit          3D

  0  0  0  0  0  0  0  0  0  0999 V3000
M  V30 BEGIN CTAB
M  V30 COUNTS 39 42 0 0 1
M  V30 BEGIN ATOM
M  V30 1 C 7.718533 6.585928 -12.000366 0
M  V30 2 C 9.742150 5.792138 -7.251984 0
M  V30 3 C 11.333994 8.427591 -9.237017 0
M  V30 4 C 10.681678 7.477515 -10.006599 0
M  V30 5 C 11.354063 8.964839 -6.804335 0
M  V30 6 C 9.745692 7.228341 -7.832163 0 CFG=2
M  V30 7 C 9.876437 6.789717 -9.251092 0
M  V30 8 C 5.536556 5.934564 -10.997277 0
M  V30 9 O 8.511889 4.900887 -14.456527 0
M  V30 10 S 6.532429 4.458057 -10.791475 0
M  V30 11 N 9.237192 5.637533 -9.509484 0
M  V30 12 N 10.874332 8.238181 -7.974258 0
M  V30 13 C 6.210381 6.866888 -12.003371 0
M  V30 14 C 9.260241 4.909997 -10.787882 0
M  V30 15 C 8.933572 4.904768 -8.309286 0
M  V30 16 F 10.985539 7.190719 -11.284298 0
M  V30 17 C 7.987564 5.099282 -11.650914 0 CFG=2
M  V30 18 C 7.125170 4.489114 -14.512271 0
M  V30 19 O 12.175414 9.240195 -9.585307 0
M  V30 20 O 8.575380 2.570589 -13.066193 0
M  V30 21 P 8.177715 4.002498 -13.146257 0 CFG=1
M  V30 22 H 8.162024 7.240412 -11.252872 0
M  V30 23 H 8.179609 6.881813 -12.942558 0
M  V30 24 H 9.302423 5.775799 -6.257710 0
M  V30 25 H 10.773019 5.440833 -7.184427 0
M  V30 26 H 12.444357 9.004970 -6.791810 0
M  V30 27 H 11.027363 8.469565 -5.889768 0
M  V30 28 H 10.976350 9.984540 -6.784732 0
M  V30 29 H 8.789874 7.732336 -7.684203 0
M  V30 30 H 4.575407 5.619339 -11.359611 0
M  V30 31 H 5.375422 6.390207 -10.023957 0
M  V30 32 H 5.783023 6.707214 -12.989202 0
M  V30 33 H 6.008114 7.910088 -11.758056 0
M  V30 34 H 10.140846 5.144946 -11.379735 0
M  V30 35 H 9.373091 3.846368 -10.572894 0
M  V30 36 H 7.860543 4.870118 -8.115552 0
M  V30 37 H 9.375125 3.918105 -8.336444 0
M  V30 38 H 6.971272 3.791045 -15.331435 0
M  V30 39 H 6.479140 5.355889 -14.455519 0
M  V30 END ATOM
M  V30 BEGIN BOND
M  V30 1 1 4 3
M  V30 2 1 6 2
M  V30 3 2 7 4
M  V30 4 1 7 6
M  V30 5 1 10 8
M  V30 6 1 11 7
M  V30 7 1 12 3
M  V30 8 1 12 5
M  V30 9 1 12 6
M  V30 10 1 13 1
M  V30 11 1 13 8
M  V30 12 1 14 11
M  V30 13 1 15 2
M  V30 14 1 15 11
M  V30 15 1 16 4
M  V30 16 1 17 1
M  V30 17 1 17 10
M  V30 18 1 17 14 CFG=1
M  V30 19 1 18 9
M  V30 20 2 19 3
M  V30 21 1 21 9 CFG=3
M  V30 22 1 21 17
M  V30 23 1 21 18
M  V30 24 2 21 20
M  V30 25 1 22 1
M  V30 26 1 23 1
M  V30 27 1 24 2
M  V30 28 1 25 2
M  V30 29 1 26 5
M  V30 30 1 27 5
M  V30 31 1 28 5
M  V30 32 1 6 29 CFG=3
M  V30 33 1 30 8
M  V30 34 1 31 8
M  V30 35 1 32 13
M  V30 36 1 33 13
M  V30 37 1 34 14
M  V30 38 1 35 14
M  V30 39 1 36 15
M  V30 40 1 37 15
M  V30 41 1 38 18
M  V30 42 1 39 18
M  V30 END BOND
M  V30 END CTAB
M  END
>  <i_epik_Tot_Q>  (1) 
0

>  <i_epik_Tot_abs_Q>  (1) 
0

>  <i_i_glide_confnum>  (1) 
15

>  <i_i_glide_lignum>  (1) 
184

>  <i_i_glide_posenum>  (1) 
141

>  <i_i_glide_rotatable_bonds>  (1) 
3

>  <i_lp_mmshare_version>  (1) 
72125

>  <i_m_source_file_index>  (1) 
97

>  <i_f3d_flags>  (1) 
0

>  <num_sample>  (1) 
100

>  <b_lp_Chiralities_Consistent>  (1) 
1

>  <r_epik_Charging_Adjusted_Penalty>  (1) 
0

>  <r_epik_Ionization_Penalty>  (1) 
2.3370039309423061e-08

>  <r_epik_Ionization_Penalty_Charging>  (1) 
0

>  <r_epik_Ionization_Penalty_Neutral>  (1) 
2.3370039309423061e-08

>  <r_epik_State_Penalty>  (1) 
-0

>  <r_glide_ring_energy>  (1) 
1.2780340719072554

>  <r_i_docking_score>  (1) 
-3.4324791447719281

>  <r_i_glide_ecoul>  (1) 
1.6020613715632683

>  <r_i_glide_eff_state_penalty>  (1) 
-0

>  <r_i_glide_einternal>  (1) 
4.8959410900991154

>  <r_i_glide_emodel>  (1) 
-29.72625850955778

>  <r_i_glide_emodel_strain>  (1) 
0.19181560254595809

>  <r_i_glide_energy>  (1) 
-27.680587705610467

>  <r_i_glide_erotb>  (1) 
0.51154997196258456

>  <r_i_glide_esite>  (1) 
-0.075792422803148435

>  <r_i_glide_evdw>  (1) 
-29.282649077173737

>  <r_i_glide_gscore>  (1) 
-3.4324791447719281

>  <r_i_glide_gscore_strain>  (1) 
0

>  <r_i_glide_hbond>  (1) 
0

>  <r_i_glide_ligand_efficiency>  (1) 
-0.1634513878462823

>  <r_i_glide_ligand_efficiency_ln>  (1) 
-0.84867353256766676

>  <r_i_glide_ligand_efficiency_sa>  (1) 
-0.45094998559215554

>  <r_i_glide_lipo>  (1) 
-0.48158811606204538

>  <r_i_glide_metal>  (1) 
-0

>  <r_i_glide_rewards>  (1) 
-2.1628253297451225

>  <r_lp_Energy>  (1) 
19.645654999999998

>  <r_lp_tautomer_probability>  (1) 
1

>  <s_epik_cmdline>  (1) 
J2VwaWtfcHl0aG9uJywgJy1waHQnLCAnMS4wJywgJy1waCcsICc3LjQnLCAnLXRuJywgJzgnLCAnLW1hJywgJzUwMCcsICctaW1hZScsICc8aW5maWxlLm1hZT4nLCAnLW9tYWUnLCAnPG91dGZpbGUubWFlPic=

>  <s_epik_input>  (1) 
UzFbQ0gyXVtDSDJdW0NIMl1bQ0BAXTEoW1BAXTIoPU8pT1tDSDJdMilbQ0gyXU4oW0NIMl1bQ0gyXTMpQyhbQ0BASF0zNCk9QyhGKUMoPU8pTjRbQ0gzXQ==

>  <s_glide_docking_method>  (1) 
confgen

>  <s_i_glide_gridfile>  (1) 
gpcr_drd2_6luq_protein_autoprepared_prepared

>  <s_lp_Force_Field>  (1) 
S-OPLS

>  <s_lp_Variant>  (1) 
DiffSBDD_96-1

>  <s_m_source_file>  (1) 
generated_generic_title2_ligand_DiffSBDD_2026-06-23_prepared.sdf

>  <GenAI_Model>  (1) 
DiffSBDD

>  <Protein>  (1) 
generic_title2

$$$$
DiffSBDD_69
     RDKit          3D

  0  0  0  0  0  0  0  0  0  0999 V3000
M  V30 BEGIN CTAB
M  V30 COUNTS 68 71 0 0 1
M  V30 BEGIN ATOM
M  V30 1 C 6.902984 -0.140619 -17.311616 0
M  V30 2 C 8.396954 2.991874 -21.273393 0 CFG=1
M  V30 3 C 7.501686 7.157858 -20.589134 0
M  V30 4 C 6.677253 0.066781 -20.332167 0 CFG=1
M  V30 5 C 7.328731 1.404260 -15.244813 0
M  V30 6 C 7.808180 1.097945 -22.980951 0
M  V30 7 F 8.222542 0.689213 -13.188095 0
M  V30 8 C 6.980893 -0.014891 -15.730033 0 CFG=1
M  V30 9 C 7.274971 2.113183 -21.943224 0 CFG=1
M  V30 10 C 7.970047 0.151341 -19.524554 0
M  V30 11 C 8.651861 6.437667 -21.280694 0
M  V30 12 S 5.288067 -0.707077 -19.460307 0
M  V30 13 C 4.828905 -0.607998 -16.733361 0
M  V30 14 C 7.358065 1.552733 -13.715472 0
M  V30 15 C 8.021077 6.541176 -19.298913 0
M  V30 16 C 5.698275 -0.465679 -17.769661 0
M  V30 17 C 11.581057 7.164254 -19.386142 0
M  V30 18 C 8.720575 5.409209 -20.106667 0
M  V30 19 C 5.455355 -0.374186 -15.601649 0
M  V30 20 F 7.742564 2.788889 -13.402334 0
M  V30 21 C 9.340022 3.523282 -22.382270 0
M  V30 22 C 11.363591 5.784395 -20.028217 0
M  V30 23 C 12.865474 7.836233 -19.879699 0
M  V30 24 C 5.503889 2.421836 -20.101812 0
M  V30 25 C 7.385409 3.509497 -18.934665 0
M  V30 26 F 6.153322 1.340821 -13.188266 0
M  V30 27 N 6.271538 2.759965 -18.915980 0
M  V30 28 C 7.838019 4.111261 -20.304781 0 CFG=2
M  V30 29 C 6.237786 1.412413 -21.013670 0 CFG=2
M  V30 30 C 10.118994 5.017604 -19.524665 0
M  V30 31 O 8.033237 3.731057 -17.913837 0
M  V30 32 C 8.051413 0.073865 -18.179733 0
M  V30 33 H 9.027697 2.345858 -20.670216 0
M  V30 34 H 7.551029 8.245886 -20.633619 0
M  V30 35 H 6.518988 6.783036 -20.877119 0
M  V30 36 H 6.899400 -0.644647 -21.126708 0
M  V30 37 H 8.308435 1.678925 -15.637439 0
M  V30 38 H 6.623341 2.121804 -15.666748 0
M  V30 39 H 8.572203 0.447959 -22.554491 0
M  V30 40 H 7.006932 0.463001 -23.360597 0
M  V30 41 H 8.236374 1.589327 -23.854251 0
M  V30 42 H 7.618528 -0.789750 -15.302885 0
M  V30 43 H 6.684526 2.818366 -22.530892 0
M  V30 44 H 8.873462 0.304842 -20.092272 0
M  V30 45 H 9.512757 7.096810 -21.381309 0
M  V30 46 H 8.367183 6.040169 -22.252441 0
M  V30 47 H 3.785208 -0.868208 -16.826573 0
M  V30 48 H 7.231646 6.232191 -18.614497 0
M  V30 49 H 8.726254 7.190655 -18.784403 0
M  V30 50 H 10.741360 7.826478 -19.589223 0
M  V30 51 H 11.635587 7.053471 -18.303437 0
M  V30 52 H 4.979108 -0.421043 -14.632791 0
M  V30 53 H 8.787174 4.041400 -23.165609 0
M  V30 54 H 10.108806 4.194838 -22.017233 0
M  V30 55 H 9.894454 2.714414 -22.855228 0
M  V30 56 H 12.238584 5.177846 -19.792813 0
M  V30 57 H 11.364289 5.865306 -21.114002 0
M  V30 58 H 13.015967 8.790683 -19.378510 0
M  V30 59 H 13.739491 7.217716 -19.675140 0
M  V30 60 H 12.825661 8.024292 -20.952720 0
M  V30 61 H 5.176823 3.306590 -20.647862 0
M  V30 62 H 4.575207 1.976681 -19.748732 0
M  V30 63 H 5.964368 2.372842 -18.036144 0
M  V30 64 H 6.938155 4.481272 -20.789127 0
M  V30 65 H 5.449754 1.095862 -21.700045 0
M  V30 66 H 10.103926 5.106843 -18.437734 0
M  V30 67 H 10.319578 3.960580 -19.691669 0
M  V30 68 H 9.023561 0.179619 -17.720940 0
M  V30 END ATOM
M  V30 BEGIN BOND
M  V30 1 1 8 1
M  V30 2 1 8 5
M  V30 3 1 9 2
M  V30 4 1 9 6
M  V30 5 1 10 4
M  V30 6 1 11 3
M  V30 7 1 12 4
M  V30 8 1 14 5
M  V30 9 1 14 7
M  V30 10 1 15 3
M  V30 11 2 16 1
M  V30 12 1 16 12
M  V30 13 1 16 13
M  V30 14 1 18 11
M  V30 15 1 18 15
M  V30 16 1 19 8
M  V30 17 2 19 13
M  V30 18 1 20 14
M  V30 19 1 21 2
M  V30 20 1 22 17
M  V30 21 1 23 17
M  V30 22 1 26 14
M  V30 23 1 27 24
M  V30 24 1 27 25
M  V30 25 1 28 2
M  V30 26 1 28 18
M  V30 27 1 28 25
M  V30 28 1 29 4
M  V30 29 1 29 9
M  V30 30 1 29 24
M  V30 31 1 30 18
M  V30 32 1 30 22
M  V30 33 2 31 25
M  V30 34 1 32 1
M  V30 35 2 32 10
M  V30 36 1 2 33 CFG=1
M  V30 37 1 34 3
M  V30 38 1 35 3
M  V30 39 1 4 36 CFG=3
M  V30 40 1 37 5
M  V30 41 1 38 5
M  V30 42 1 39 6
M  V30 43 1 40 6
M  V30 44 1 41 6
M  V30 45 1 8 42 CFG=1
M  V30 46 1 9 43 CFG=3
M  V30 47 1 44 10
M  V30 48 1 45 11
M  V30 49 1 46 11
M  V30 50 1 47 13
M  V30 51 1 48 15
M  V30 52 1 49 15
M  V30 53 1 50 17
M  V30 54 1 51 17
M  V30 55 1 52 19
M  V30 56 1 53 21
M  V30 57 1 54 21
M  V30 58 1 55 21
M  V30 59 1 56 22
M  V30 60 1 57 22
M  V30 61 1 58 23
M  V30 62 1 59 23
M  V30 63 1 60 23
M  V30 64 1 61 24
M  V30 65 1 62 24
M  V30 66 1 63 27
M  V30 67 1 28 64 CFG=3
M  V30 68 1 29 65 CFG=3
M  V30 69 1 66 30
M  V30 70 1 67 30
M  V30 71 1 68 32
M  V30 END BOND
M  V30 END CTAB
M  END
>  <i_epik_Tot_Q>  (1) 
0

>  <i_epik_Tot_abs_Q>  (1) 
0

>  <i_i_glide_confnum>  (1) 
88

>  <i_i_glide_lignum>  (1) 
112

>  <i_i_glide_posenum>  (1) 
204

>  <i_i_glide_rotatable_bonds>  (1) 
7

>  <i_lp_mmshare_version>  (1) 
72125

>  <i_m_source_file_index>  (1) 
70

>  <i_f3d_flags>  (1) 
0

>  <num_sample>  (1) 
100

>  <b_lp_Chiralities_Consistent>  (1) 
1

>  <r_epik_Charging_Adjusted_Penalty>  (1) 
0

>  <r_epik_Ionization_Penalty>  (1) 
2.8523950136144186e-08

>  <r_epik_Ionization_Penalty_Charging>  (1) 
0

>  <r_epik_Ionization_Penalty_Neutral>  (1) 
2.8523950136144186e-08

>  <r_epik_State_Penalty>  (1) 
-0

>  <r_glide_ring_energy>  (1) 
0.00015063106996441122

>  <r_i_docking_score>  (1) 
-3.4319927736444451

>  <r_i_glide_ecoul>  (1) 
0.15043985822572711

>  <r_i_glide_eff_state_penalty>  (1) 
-0

>  <r_i_glide_einternal>  (1) 
1.5476282720543075

>  <r_i_glide_emodel>  (1) 
-29.375417910243044

>  <r_i_glide_emodel_strain>  (1) 
0.0011481877151595654

>  <r_i_glide_energy>  (1) 
-26.329624112633415

>  <r_i_glide_erotb>  (1) 
0.46147465592596376

>  <r_i_glide_esite>  (1) 
0

>  <r_i_glide_evdw>  (1) 
-26.480063970859142

>  <r_i_glide_gscore>  (1) 
-3.4319927736444451

>  <r_i_glide_gscore_strain>  (1) 
0

>  <r_i_glide_hbond>  (1) 
0

>  <r_i_glide_ligand_efficiency>  (1) 
-0.10724977417638891

>  <r_i_glide_ligand_efficiency_ln>  (1) 
-0.76851673460869196

>  <r_i_glide_ligand_efficiency_sa>  (1) 
-0.34049680870190324

>  <r_i_glide_lipo>  (1) 
-1.3047268694704457

>  <r_i_glide_metal>  (1) 
-0

>  <r_i_glide_rewards>  (1) 
-1.2873033402908645

>  <r_lp_Energy>  (1) 
50.695834999999995

>  <r_lp_tautomer_probability>  (1) 
1

>  <s_epik_cmdline>  (1) 
J2VwaWtfcHl0aG9uJywgJy1waHQnLCAnMS4wJywgJy1waCcsICc3LjQnLCAnLXRuJywgJzgnLCAnLW1hJywgJzUwMCcsICctaW1hZScsICc8aW5maWxlLm1hZT4nLCAnLW9tYWUnLCAnPG91dGZpbGUubWFlPic=

>  <s_epik_input>  (1) 
RkMoRikoRilbQ0gyXVtDQEhdMVtDSF09W0NIXUMoPUMxMilTW0NASF0oW0NIXT1bQ0hdMilbQ0BIXShbQ0BIXShbQ0gzXSlbQ0BIXTNbQ0gzXSlbQ0gyXVtOSF1DKD1PKVtDQEhdM0M0KFtDSDJdW0NIMl1bQ0gyXTQpW0NIMl1bQ0gyXVtDSDJdW0NIM10=

>  <s_glide_docking_method>  (1) 
confgen

>  <s_i_glide_gridfile>  (1) 
gpcr_drd2_6luq_protein_autoprepared_prepared

>  <s_lp_Force_Field>  (1) 
S-OPLS

>  <s_lp_Variant>  (1) 
DiffSBDD_69-1

>  <s_m_source_file>  (1) 
generated_generic_title2_ligand_DiffSBDD_2026-06-23_prepared.sdf

>  <GenAI_Model>  (1) 
DiffSBDD

>  <Protein>  (1) 
generic_title2

$$$$
DiffSBDD_8
     RDKit          3D

  0  0  0  0  0  0  0  0  0  0999 V3000
M  V30 BEGIN CTAB
M  V30 COUNTS 61 63 0 0 1
M  V30 BEGIN ATOM
M  V30 1 C 7.450368 -0.527722 -16.019453 0
M  V30 2 O 8.714411 -1.209778 -20.112396 0
M  V30 3 C 5.884126 5.691614 -12.220226 0
M  V30 4 N 6.643712 -1.224608 -20.964512 0
M  V30 5 C 6.839394 5.904153 -16.829142 0 CFG=2
M  V30 6 C 6.931273 4.218461 -14.393874 0
M  V30 7 N 6.239071 -2.441331 -18.223034 0
M  V30 8 C 3.880875 7.549485 -17.340786 0
M  V30 9 C 5.692261 8.630723 -15.985020 0
M  V30 10 O 5.971597 6.399466 -18.935592 0
M  V30 11 C 6.354292 6.366601 -13.359556 0
M  V30 12 C 3.665975 6.175049 -16.785029 0
M  V30 13 O 7.299043 6.335502 -15.576551 0
M  V30 14 S 8.175408 1.805185 -15.026863 0
M  V30 15 C 7.981078 5.070870 -17.431852 0
M  V30 16 C 7.504405 3.400719 -15.567913 0 CFG=2
M  V30 17 N 7.582126 0.876464 -16.332542 0 CFG=1 CHG=1
M  V30 18 F 5.375368 6.392157 -11.184908 0
M  V30 19 C 6.720618 6.990788 -19.985159 0
M  V30 20 C 8.547411 0.557831 -17.380176 0
M  V30 21 C 8.582400 4.129881 -16.386415 0
M  V30 22 C 7.932078 -0.842677 -17.435710 0 CFG=2
M  V30 23 C 5.361316 7.962700 -17.303938 0 CFG=1
M  V30 24 N 6.412713 6.997881 -17.699755 0
M  V30 25 C 7.497929 -1.202994 -19.940308 0
M  V30 26 C 5.932826 4.291916 -12.158377 0
M  V30 27 C 6.453435 3.554103 -13.234743 0
M  V30 28 C 6.866837 5.644309 -14.457748 0
M  V30 29 C 6.891455 -1.173675 -18.528831 0 CFG=1
M  V30 30 H 8.157256 -0.809840 -15.237582 0
M  V30 31 H 6.427635 -0.827646 -15.785861 0
M  V30 32 H 6.995713 -1.258040 -21.909737 0
M  V30 33 H 5.648590 -1.194474 -20.795179 0
M  V30 34 H 5.999251 5.243703 -16.665386 0
M  V30 35 H 5.581093 -2.719430 -18.936293 0
M  V30 36 H 6.903552 -3.197980 -18.129782 0
M  V30 37 H 3.265698 8.261045 -16.788020 0
M  V30 38 H 3.518913 7.575437 -18.369800 0
M  V30 39 H 5.203390 9.590229 -15.985024 0
M  V30 40 H 5.286700 8.067919 -15.150656 0
M  V30 41 H 6.757600 8.790221 -15.834465 0
M  V30 42 H 6.313948 7.443679 -13.394091 0
M  V30 43 H 2.618807 5.885719 -16.719026 0
M  V30 44 H 4.175415 5.590226 -17.524735 0
M  V30 45 H 4.175433 5.990251 -15.840235 0
M  V30 46 H 7.587277 4.505433 -18.277419 0
M  V30 47 H 8.752164 5.741928 -17.814059 0
M  V30 48 H 6.659158 3.159101 -16.207358 0
M  V30 49 H 6.431864 6.537241 -20.932979 0
M  V30 50 H 6.532197 8.062916 -20.056460 0
M  V30 51 H 7.791316 6.833643 -19.853018 0
M  V30 52 H 8.422882 1.155962 -18.283523 0
M  V30 53 H 9.585084 0.555542 -17.039517 0
M  V30 54 H 9.196999 3.411872 -16.930610 0
M  V30 55 H 9.270363 4.659231 -15.723667 0
M  V30 56 H 8.717805 -1.600285 -17.391612 0
M  V30 57 H 5.375446 8.751219 -18.055801 0
M  V30 58 H 5.569576 3.780406 -11.278883 0
M  V30 59 H 6.483248 2.478739 -13.170222 0
M  V30 60 H 6.125340 -0.397588 -18.529379 0
M  V30 61 H 6.720659 1.210768 -16.739814 0
M  V30 END ATOM
M  V30 BEGIN BOND
M  V30 1 2 11 3
M  V30 2 1 12 8
M  V30 3 1 13 5
M  V30 4 1 15 5
M  V30 5 1 16 6
M  V30 6 1 16 14
M  V30 7 1 17 1
M  V30 8 1 17 14
M  V30 9 1 18 3
M  V30 10 1 19 10
M  V30 11 1 20 17
M  V30 12 1 21 15
M  V30 13 1 21 16
M  V30 14 1 22 1
M  V30 15 1 22 20
M  V30 16 1 23 8
M  V30 17 1 23 9
M  V30 18 1 24 5
M  V30 19 1 24 10
M  V30 20 1 24 23
M  V30 21 2 25 2
M  V30 22 1 25 4
M  V30 23 1 26 3
M  V30 24 1 27 6
M  V30 25 2 27 26
M  V30 26 2 28 6
M  V30 27 1 28 11
M  V30 28 1 28 13
M  V30 29 1 29 7
M  V30 30 1 29 22
M  V30 31 1 29 25
M  V30 32 1 30 1
M  V30 33 1 31 1
M  V30 34 1 32 4
M  V30 35 1 33 4
M  V30 36 1 5 34 CFG=1
M  V30 37 1 35 7
M  V30 38 1 36 7
M  V30 39 1 37 8
M  V30 40 1 38 8
M  V30 41 1 39 9
M  V30 42 1 40 9
M  V30 43 1 41 9
M  V30 44 1 42 11
M  V30 45 1 43 12
M  V30 46 1 44 12
M  V30 47 1 45 12
M  V30 48 1 46 15
M  V30 49 1 47 15
M  V30 50 1 16 48 CFG=3
M  V30 51 1 49 19
M  V30 52 1 50 19
M  V30 53 1 51 19
M  V30 54 1 52 20
M  V30 55 1 53 20
M  V30 56 1 54 21
M  V30 57 1 55 21
M  V30 58 1 22 56 CFG=1
M  V30 59 1 23 57 CFG=3
M  V30 60 1 58 26
M  V30 61 1 59 27
M  V30 62 1 29 60 CFG=3
M  V30 63 1 17 61 CFG=3
M  V30 END BOND
M  V30 END CTAB
M  END
>  <i_epik_Tot_Q>  (1) 
1

>  <i_epik_Tot_abs_Q>  (1) 
1

>  <i_i_glide_confnum>  (1) 
18

>  <i_i_glide_lignum>  (1) 
11

>  <i_i_glide_posenum>  (1) 
169

>  <i_i_glide_rotatable_bonds>  (1) 
8

>  <i_lp_mmshare_version>  (1) 
72125

>  <i_m_source_file_index>  (1) 
9

>  <i_f3d_flags>  (1) 
0

>  <num_sample>  (1) 
100

>  <b_lp_Chiralities_Consistent>  (1) 
1

>  <r_epik_Charging_Adjusted_Penalty>  (1) 
0.26758124344448359

>  <r_epik_Ionization_Penalty>  (1) 
0.27573061112751834

>  <r_epik_Ionization_Penalty_Charging>  (1) 
0.017350130917063531

>  <r_epik_Ionization_Penalty_Neutral>  (1) 
0.25838048021045479

>  <r_epik_State_Penalty>  (1) 
0.25023111252742003

>  <r_glide_ring_energy>  (1) 
0

>  <r_i_docking_score>  (1) 
-3.4309483930190301

>  <r_i_glide_ecoul>  (1) 
-2.2636876803186787

>  <r_i_glide_eff_state_penalty>  (1) 
0.25023111252742003

>  <r_i_glide_einternal>  (1) 
2.2475777113962003

>  <r_i_glide_emodel>  (1) 
-30.413986837308379

>  <r_i_glide_emodel_strain>  (1) 
1.6019719230086764

>  <r_i_glide_energy>  (1) 
-21.266557453239315

>  <r_i_glide_erotb>  (1) 
0.54307168116637361

>  <r_i_glide_esite>  (1) 
-0.092693065332883129

>  <r_i_glide_evdw>  (1) 
-19.002869772920636

>  <r_i_glide_gscore>  (1) 
-3.6811795055464502

>  <r_i_glide_gscore_strain>  (1) 
0

>  <r_i_glide_hbond>  (1) 
0

>  <r_i_glide_ligand_efficiency>  (1) 
-0.11830856527651828

>  <r_i_glide_ligand_efficiency_ln>  (1) 
-0.78560018065679227

>  <r_i_glide_ligand_efficiency_sa>  (1) 
-0.36348139572179955

>  <r_i_glide_lipo>  (1) 
-1.6984475728944464

>  <r_i_glide_metal>  (1) 
-0

>  <r_i_glide_rewards>  (1) 
-1.143413907791661

>  <r_lp_Energy>  (1) 
46.913368999999996

>  <r_lp_tautomer_probability>  (1) 
1

>  <s_epik_Chemistry_Notes>  (1) 
This compound contains an acetal/aminal-like group ( X-CH(R)-Y where X, Y are N, S, or O) that may be acid/base labile, releasing an aldehyde. This compound has a N-S or N-O group and may undergo hydrolysis at high or low pH.

>  <s_epik_cmdline>  (1) 
J2VwaWtfcHl0aG9uJywgJy1waHQnLCAnMS4wJywgJy1waCcsICc3LjQnLCAnLXRuJywgJzgnLCAnLW1hJywgJzUwMCcsICctaW1hZScsICc8aW5maWxlLm1hZT4nLCAnLW9tYWUnLCAnPG91dGZpbGUubWFlPic=

>  <s_epik_input>  (1) 
Tz1DKFtOSDJdKVtDQEBIXShbTkgyXSlbQ0hdKFtDSDJdMSlbQ0gyXU4xU1tDQEBIXTJbQ0gyXVtDSDJdW0NASF0oTihPW0NIM10pW0NASF0oW0NIM10pW0NIMl1bQ0gzXSlPYyhjMjMpW2NIXWMoRilbY0hdW2NIXTM=

>  <s_glide_docking_method>  (1) 
confgen

>  <s_i_glide_gridfile>  (1) 
gpcr_drd2_6luq_protein_autoprepared_prepared

>  <s_lp_Force_Field>  (1) 
S-OPLS

>  <s_lp_Variant>  (1) 
DiffSBDD_8-1

>  <s_m_source_file>  (1) 
generated_generic_title2_ligand_DiffSBDD_2026-06-23_prepared.sdf

>  <GenAI_Model>  (1) 
DiffSBDD

>  <Protein>  (1) 
generic_title2

$$$$
DiffSBDD_64
     RDKit          3D

  0  0  0  0  0  0  0  0  0  0999 V3000
M  V30 BEGIN CTAB
M  V30 COUNTS 77 80 0 0 1
M  V30 BEGIN ATOM
M  V30 1 C 6.873201 6.783776 -16.105436 0
M  V30 2 C 11.774957 6.716217 -7.471679 0
M  V30 3 C 8.305624 5.964168 -18.065295 0 CFG=2
M  V30 4 C 8.447452 4.069791 -12.146138 0
M  V30 5 C 9.338044 8.712410 -6.413140 0
M  V30 6 C 8.205872 3.724688 -19.376889 0
M  V30 7 C 7.723236 5.250577 -12.760289 0 CFG=1
M  V30 8 O 11.774910 6.515507 -5.087552 0
M  V30 9 C 6.543375 5.631327 -19.688916 0
M  V30 10 C 9.439496 5.346516 -17.220553 0
M  V30 11 C 8.771498 4.370789 -10.693605 0
M  V30 12 C 10.489821 9.587552 -5.865773 0
M  V30 13 C 11.757971 8.768716 -5.986113 0
M  V30 14 C 4.612107 6.154494 -18.093224 0
M  V30 15 N 6.990638 6.005989 -17.377751 0 CFG=2 CHG=1
M  V30 16 C 5.574991 7.052110 -13.943870 0
M  V30 17 C 11.286881 7.313570 -6.161260 0 CFG=1
M  V30 18 C 8.006654 5.252231 -19.399945 0 CFG=1
M  V30 19 C 6.064704 6.413283 -18.454841 0 CFG=1
M  V30 20 C 8.746046 6.411212 -12.724060 0
M  V30 21 C 9.066648 6.784018 -11.253195 0
M  V30 22 C 11.003797 6.915179 -8.803085 0
M  V30 23 C 8.743885 5.956251 -8.094083 0
M  V30 24 C 9.042729 6.095666 -6.606782 0
M  V30 25 C 9.779465 7.315216 -6.031990 0 CFG=2
M  V30 26 S 7.067482 4.709728 -14.377080 0
M  V30 27 N 9.559932 5.611189 -10.485382 0 CFG=1 CHG=1
M  V30 28 C 9.941438 5.812002 -9.039036 0 CFG=1
M  V30 29 C 6.052105 6.074678 -15.027698 0 CFG=2
M  V30 30 H 6.572720 7.820609 -16.278835 0
M  V30 31 H 7.817549 6.790221 -15.585030 0
M  V30 32 H 12.787647 7.106897 -7.584294 0
M  V30 33 H 11.801453 5.643649 -7.272555 0
M  V30 34 H 8.596477 6.971540 -18.385026 0
M  V30 35 H 7.822173 3.178662 -12.204829 0
M  V30 36 H 9.358560 3.833312 -12.701672 0
M  V30 37 H 8.355454 8.906555 -5.985951 0
M  V30 38 H 9.236006 8.832017 -7.491254 0
M  V30 39 H 7.595116 3.253860 -18.607263 0
M  V30 40 H 7.931597 3.282052 -20.334829 0
M  V30 41 H 9.245978 3.457435 -19.190571 0
M  V30 42 H 6.863030 5.500103 -12.135725 0
M  V30 43 H 12.701146 6.373536 -5.208405 0
M  V30 44 H 5.936901 4.737696 -19.846328 0
M  V30 45 H 6.451171 6.237074 -20.591856 0
M  V30 46 H 10.353661 5.243260 -17.806668 0
M  V30 47 H 9.695984 5.963571 -16.360083 0
M  V30 48 H 9.174647 4.357191 -16.844294 0
M  V30 49 H 9.382819 3.534179 -10.384388 0
M  V30 50 H 7.837698 4.387537 -10.133192 0
M  V30 51 H 10.339073 9.842258 -4.819138 0
M  V30 52 H 10.588981 10.532686 -6.384400 0
M  V30 53 H 12.388688 8.906537 -5.105529 0
M  V30 54 H 12.327689 9.118149 -6.846689 0
M  V30 55 H 3.981193 6.117348 -18.977662 0
M  V30 56 H 4.575855 5.194359 -17.591939 0
M  V30 57 H 4.212416 6.913194 -17.420829 0
M  V30 58 H 4.975812 7.841001 -14.387296 0
M  V30 59 H 4.978046 6.543752 -13.191699 0
M  V30 60 H 6.373858 7.565482 -13.424659 0
M  V30 61 H 8.654063 5.658530 -20.178540 0
M  V30 62 H 6.193730 7.478133 -18.655955 0
M  V30 63 H 8.400091 7.303791 -13.236212 0
M  V30 64 H 9.664647 6.112164 -13.227500 0
M  V30 65 H 8.175839 7.172979 -10.787403 0
M  V30 66 H 9.809464 7.583945 -11.227183 0
M  V30 67 H 11.747127 6.854342 -9.598112 0
M  V30 68 H 10.581781 7.913584 -8.891340 0
M  V30 69 H 8.082272 5.096053 -8.173733 0
M  V30 70 H 8.175423 6.790410 -8.384036 0
M  V30 71 H 9.683590 5.267284 -6.390223 0
M  V30 72 H 8.109608 5.975881 -6.057311 0
M  V30 73 H 9.646451 7.241221 -4.960283 0
M  V30 74 H 10.403354 4.864978 -8.763775 0
M  V30 75 H 5.165401 5.621626 -15.466143 0
M  V30 76 H 10.431248 5.398852 -10.946606 0
M  V30 77 H 6.790080 5.045227 -17.141293 0
M  V30 END ATOM
M  V30 BEGIN BOND
M  V30 1 1 7 4
M  V30 2 1 10 3
M  V30 3 1 11 4
M  V30 4 1 12 5
M  V30 5 1 13 12
M  V30 6 1 15 1
M  V30 7 1 15 3
M  V30 8 1 17 2
M  V30 9 1 17 8 CFG=1
M  V30 10 1 17 13
M  V30 11 1 18 3
M  V30 12 1 18 6
M  V30 13 1 18 9
M  V30 14 1 19 9
M  V30 15 1 19 14
M  V30 16 1 19 15
M  V30 17 1 20 7
M  V30 18 1 21 20
M  V30 19 1 22 2
M  V30 20 1 24 23
M  V30 21 1 25 5
M  V30 22 1 25 17
M  V30 23 1 25 24
M  V30 24 1 26 7
M  V30 25 1 27 11
M  V30 26 1 27 21
M  V30 27 1 28 22
M  V30 28 1 28 23
M  V30 29 1 28 27
M  V30 30 1 29 1
M  V30 31 1 29 16
M  V30 32 1 29 26
M  V30 33 1 30 1
M  V30 34 1 31 1
M  V30 35 1 32 2
M  V30 36 1 33 2
M  V30 37 1 3 34 CFG=3
M  V30 38 1 35 4
M  V30 39 1 36 4
M  V30 40 1 37 5
M  V30 41 1 38 5
M  V30 42 1 39 6
M  V30 43 1 40 6
M  V30 44 1 41 6
M  V30 45 1 7 42 CFG=1
M  V30 46 1 43 8
M  V30 47 1 44 9
M  V30 48 1 45 9
M  V30 49 1 46 10
M  V30 50 1 47 10
M  V30 51 1 48 10
M  V30 52 1 49 11
M  V30 53 1 50 11
M  V30 54 1 51 12
M  V30 55 1 52 12
M  V30 56 1 53 13
M  V30 57 1 54 13
M  V30 58 1 55 14
M  V30 59 1 56 14
M  V30 60 1 57 14
M  V30 61 1 58 16
M  V30 62 1 59 16
M  V30 63 1 60 16
M  V30 64 1 18 61 CFG=3
M  V30 65 1 19 62 CFG=3
M  V30 66 1 63 20
M  V30 67 1 64 20
M  V30 68 1 65 21
M  V30 69 1 66 21
M  V30 70 1 67 22
M  V30 71 1 68 22
M  V30 72 1 69 23
M  V30 73 1 70 23
M  V30 74 1 71 24
M  V30 75 1 72 24
M  V30 76 1 25 73 CFG=1
M  V30 77 1 28 74 CFG=1
M  V30 78 1 29 75 CFG=3
M  V30 79 1 27 76 CFG=3
M  V30 80 1 15 77 CFG=1
M  V30 END BOND
M  V30 END CTAB
M  END
>  <i_epik_Tot_Q>  (1) 
2

>  <i_epik_Tot_abs_Q>  (1) 
2

>  <i_i_glide_confnum>  (1) 
38

>  <i_i_glide_lignum>  (1) 
105

>  <i_i_glide_posenum>  (1) 
226

>  <i_i_glide_rotatable_bonds>  (1) 
6

>  <i_lp_mmshare_version>  (1) 
72125

>  <i_m_source_file_index>  (1) 
65

>  <i_f3d_flags>  (1) 
0

>  <num_sample>  (1) 
100

>  <b_lp_Chiralities_Consistent>  (1) 
1

>  <r_epik_Charging_Adjusted_Penalty>  (1) 
0.010385271147369776

>  <r_epik_Ionization_Penalty>  (1) 
0.010385491156522124

>  <r_epik_Ionization_Penalty_Charging>  (1) 
0.010385271147369776

>  <r_epik_Ionization_Penalty_Neutral>  (1) 
2.2000915234807092e-07

>  <r_epik_State_Penalty>  (1) 
-0

>  <r_glide_ring_energy>  (1) 
0

>  <r_i_docking_score>  (1) 
-3.4223070725727571

>  <r_i_glide_ecoul>  (1) 
-2.1512009165965127

>  <r_i_glide_eff_state_penalty>  (1) 
-0

>  <r_i_glide_einternal>  (1) 
5.9485693802244253

>  <r_i_glide_emodel>  (1) 
-2.3735890043092907

>  <r_i_glide_emodel_strain>  (1) 
2.5488792972808341

>  <r_i_glide_energy>  (1) 
-4.8695764104859016

>  <r_i_glide_erotb>  (1) 
0.5496323063178965

>  <r_i_glide_esite>  (1) 
-0.02732449897071576

>  <r_i_glide_evdw>  (1) 
-2.7183754938893889

>  <r_i_glide_gscore>  (1) 
-3.4223070725727571

>  <r_i_glide_gscore_strain>  (1) 
0

>  <r_i_glide_hbond>  (1) 
0

>  <r_i_glide_ligand_efficiency>  (1) 
-0.11801058870940542

>  <r_i_glide_ligand_efficiency_ln>  (1) 
-0.78362153739957563

>  <r_i_glide_ligand_efficiency_sa>  (1) 
-0.36256591730099857

>  <r_i_glide_lipo>  (1) 
-2.072866717735991

>  <r_i_glide_metal>  (1) 
-0

>  <r_i_glide_rewards>  (1) 
-1.4131492500000007

>  <r_lp_Energy>  (1) 
49.546199999999999

>  <r_lp_tautomer_probability>  (1) 
1

>  <s_epik_cmdline>  (1) 
J2VwaWtfcHl0aG9uJywgJy1waHQnLCAnMS4wJywgJy1waCcsICc3LjQnLCAnLXRuJywgJzgnLCAnLW1hJywgJzUwMCcsICctaW1hZScsICc8aW5maWxlLm1hZT4nLCAnLW9tYWUnLCAnPG91dGZpbGUubWFlPic=

>  <s_epik_input>  (1) 
W0NIM11bQ0BIXTFbQ0gyXVtDQEBIXShbQ0gzXSlOKFtDQEhdMVtDSDNdKVtDSDJdW0NASF0oW0NIM10pU1tDSF0yW0NIMl1bQ0gyXU4oW0NIMl1bQ0gyXTIpW0NAQEhdKFtDSDJdW0NIMl0zKVtDSDJdW0NIMl1bQ0BASF0oW0NAQF0zNFtPSF0pW0NIMl1bQ0gyXVtDSDJdNA==

>  <s_glide_docking_method>  (1) 
confgen

>  <s_i_glide_gridfile>  (1) 
gpcr_drd2_6luq_protein_autoprepared_prepared

>  <s_lp_Force_Field>  (1) 
S-OPLS

>  <s_lp_Variant>  (1) 
DiffSBDD_64-4

>  <s_m_source_file>  (1) 
generated_generic_title2_ligand_DiffSBDD_2026-06-23_prepared.sdf

>  <GenAI_Model>  (1) 
DiffSBDD

>  <Protein>  (1) 
generic_title2

$$$$
DiffSBDD_53
     RDKit          3D

  0  0  0  0  0  0  0  0  0  0999 V3000
M  V30 BEGIN CTAB
M  V30 COUNTS 73 75 0 0 1
M  V30 BEGIN ATOM
M  V30 1 C 7.773951 0.823898 -14.178351 0
M  V30 2 C 9.775489 5.823353 -10.108111 0
M  V30 3 O 7.788339 0.466842 -13.003247 0
M  V30 4 S 10.490421 7.190237 -11.095221 0
M  V30 5 C 10.500658 6.458807 -5.626257 0
M  V30 6 C 8.622664 6.628994 -12.887236 0
M  V30 7 C 5.730262 4.718890 -12.653861 0
M  V30 8 C 9.050138 7.471346 -11.988375 0
M  V30 9 C 11.843041 7.977777 -7.094376 0
M  V30 10 C 9.575352 7.048431 -7.904141 0
M  V30 11 C 9.079321 0.628469 -17.435795 0
M  V30 12 C 5.298532 8.378777 -16.235276 0
M  V30 13 C 7.840676 0.810189 -16.542103 0 CFG=1
M  V30 14 C 7.833430 -0.167091 -15.312082 0
M  V30 15 N 7.693825 2.076564 -14.581685 0
M  V30 16 C 12.034496 8.788743 -8.362576 0
M  V30 17 C 6.069295 3.461650 -13.430830 0
M  V30 18 C 6.330885 5.973796 -13.309737 0 CFG=1
M  V30 19 C 8.301977 4.515695 -14.186523 0 CFG=2
M  V30 20 C 6.312671 7.580899 -15.415325 0
M  V30 21 C 10.410916 7.546072 -6.711884 0
M  V30 22 C 8.556000 3.398489 -16.492635 0
M  V30 23 C 10.217369 5.883540 -8.657700 0
M  V30 24 C 7.567146 3.236035 -13.671009 0 CFG=2
M  V30 25 C 7.623693 2.278989 -16.009812 0 CFG=1
M  V30 26 C 9.708350 8.761782 -6.124603 0
M  V30 27 C 12.969564 8.525599 -9.287241 0
M  V30 28 C 7.813838 5.800707 -13.486314 0
M  V30 29 C 5.581897 6.603422 -14.486168 0
M  V30 30 C 8.209038 4.674713 -15.722322 0
M  V30 31 H 8.684404 5.870021 -10.123997 0
M  V30 32 H 10.024183 4.870546 -10.575026 0
M  V30 33 H 9.513957 6.114109 -5.321888 0
M  V30 34 H 11.008823 6.826281 -4.735062 0
M  V30 35 H 11.058144 5.590989 -5.978024 0
M  V30 36 H 4.651717 4.789711 -12.562874 0
M  V30 37 H 6.113619 4.618739 -11.636918 0
M  V30 38 H 8.505896 8.369694 -11.736505 0
M  V30 39 H 12.492201 7.108024 -7.185089 0
M  V30 40 H 12.205845 8.586173 -6.271300 0
M  V30 41 H 9.395144 7.884903 -8.579215 0
M  V30 42 H 8.580931 6.744880 -7.567831 0
M  V30 43 H 9.996113 0.892810 -16.913147 0
M  V30 44 H 9.014083 1.246689 -18.331189 0
M  V30 45 H 9.173974 -0.407777 -17.762406 0
M  V30 46 H 5.775731 9.186522 -16.786971 0
M  V30 47 H 4.543097 8.825886 -15.587776 0
M  V30 48 H 4.777349 7.735732 -16.945533 0
M  V30 49 H 6.978578 0.558891 -17.162065 0
M  V30 50 H 8.711637 -0.809674 -15.249149 0
M  V30 51 H 6.943622 -0.795788 -15.299441 0
M  V30 52 H 11.374007 9.619772 -8.508809 0
M  V30 53 H 5.624376 2.584064 -12.962215 0
M  V30 54 H 5.598442 3.590493 -14.384972 0
M  V30 55 H 6.223088 6.726053 -12.521189 0
M  V30 56 H 9.363068 4.390914 -13.958957 0
M  V30 57 H 6.975430 7.062183 -16.097547 0
M  V30 58 H 6.931744 8.265838 -14.835154 0
M  V30 59 H 9.609908 3.149985 -16.385024 0
M  V30 60 H 8.402581 3.567378 -17.558870 0
M  V30 61 H 11.295528 5.990161 -8.648484 0
M  V30 62 H 9.982833 4.946174 -8.154795 0
M  V30 63 H 8.019110 2.989524 -12.707812 0
M  V30 64 H 6.595146 2.560656 -16.238607 0
M  V30 65 H 9.776570 9.590285 -6.812899 0
M  V30 66 H 10.175674 9.073147 -5.188374 0
M  V30 67 H 8.645589 8.567035 -5.984319 0
M  V30 68 H 13.653519 7.699027 -9.173471 0
M  V30 69 H 13.058857 9.139428 -10.171484 0
M  V30 70 H 4.992259 5.878416 -15.049291 0
M  V30 71 H 4.927380 7.272130 -13.953620 0
M  V30 72 H 7.187082 4.933423 -15.991992 0
M  V30 73 H 8.845225 5.496218 -16.054659 0
M  V30 END ATOM
M  V30 BEGIN BOND
M  V30 1 2 3 1
M  V30 2 1 4 2
M  V30 3 1 8 4
M  V30 4 2 8 6
M  V30 5 1 13 11
M  V30 6 1 14 1
M  V30 7 1 14 13
M  V30 8 1 15 1
M  V30 9 1 16 9
M  V30 10 1 17 7
M  V30 11 1 18 7
M  V30 12 1 20 12
M  V30 13 1 21 5
M  V30 14 1 21 9
M  V30 15 1 21 10
M  V30 16 1 23 2
M  V30 17 1 23 10
M  V30 18 1 24 15
M  V30 19 1 24 17
M  V30 20 1 24 19
M  V30 21 1 25 13
M  V30 22 1 25 15
M  V30 23 1 25 22
M  V30 24 1 26 21
M  V30 25 2 27 16
M  V30 26 2 28 6
M  V30 27 1 28 18
M  V30 28 1 28 19
M  V30 29 1 29 18
M  V30 30 1 29 20
M  V30 31 1 30 19
M  V30 32 1 30 22
M  V30 33 1 31 2
M  V30 34 1 32 2
M  V30 35 1 33 5
M  V30 36 1 34 5
M  V30 37 1 35 5
M  V30 38 1 36 7
M  V30 39 1 37 7
M  V30 40 1 38 8
M  V30 41 1 39 9
M  V30 42 1 40 9
M  V30 43 1 41 10
M  V30 44 1 42 10
M  V30 45 1 43 11
M  V30 46 1 44 11
M  V30 47 1 45 11
M  V30 48 1 46 12
M  V30 49 1 47 12
M  V30 50 1 48 12
M  V30 51 1 13 49 CFG=3
M  V30 52 1 50 14
M  V30 53 1 51 14
M  V30 54 1 52 16
M  V30 55 1 53 17
M  V30 56 1 54 17
M  V30 57 1 18 55 CFG=1
M  V30 58 1 19 56 CFG=3
M  V30 59 1 57 20
M  V30 60 1 58 20
M  V30 61 1 59 22
M  V30 62 1 60 22
M  V30 63 1 61 23
M  V30 64 1 62 23
M  V30 65 1 24 63 CFG=1
M  V30 66 1 25 64 CFG=1
M  V30 67 1 65 26
M  V30 68 1 66 26
M  V30 69 1 67 26
M  V30 70 1 68 27
M  V30 71 1 69 27
M  V30 72 1 70 29
M  V30 73 1 71 29
M  V30 74 1 72 30
M  V30 75 1 73 30
M  V30 END BOND
M  V30 END CTAB
M  END
>  <i_epik_Tot_Q>  (1) 
0

>  <i_epik_Tot_abs_Q>  (1) 
0

>  <i_i_glide_confnum>  (1) 
25

>  <i_i_glide_lignum>  (1) 
86

>  <i_i_glide_posenum>  (1) 
182

>  <i_i_glide_rotatable_bonds>  (1) 
9

>  <i_lp_mmshare_version>  (1) 
72125

>  <i_m_source_file_index>  (1) 
54

>  <i_f3d_flags>  (1) 
0

>  <num_sample>  (1) 
100

>  <b_lp_Chiralities_Consistent>  (1) 
1

>  <r_epik_Charging_Adjusted_Penalty>  (1) 
0

>  <r_epik_Ionization_Penalty>  (1) 
8.5702257649792976e-08

>  <r_epik_Ionization_Penalty_Charging>  (1) 
0

>  <r_epik_Ionization_Penalty_Neutral>  (1) 
8.5702257649792976e-08

>  <r_epik_State_Penalty>  (1) 
-0

>  <r_glide_ring_energy>  (1) 
0

>  <r_i_docking_score>  (1) 
-3.4040726000371375

>  <r_i_glide_ecoul>  (1) 
-0.48392678627353169

>  <r_i_glide_eff_state_penalty>  (1) 
-0

>  <r_i_glide_einternal>  (1) 
4.0372669598799131

>  <r_i_glide_emodel>  (1) 
-22.64197337222155

>  <r_i_glide_emodel_strain>  (1) 
10.175709912401999

>  <r_i_glide_energy>  (1) 
-29.959744336484732

>  <r_i_glide_erotb>  (1) 
0.86106388295804615

>  <r_i_glide_esite>  (1) 
0

>  <r_i_glide_evdw>  (1) 
-29.4758175502112

>  <r_i_glide_gscore>  (1) 
-3.4040726000371375

>  <r_i_glide_gscore_strain>  (1) 
1.5439274781004997

>  <r_i_glide_hbond>  (1) 
0

>  <r_i_glide_ligand_efficiency>  (1) 
-0.11346908666790459

>  <r_i_glide_ligand_efficiency_ln>  (1) 
-0.77344238507011831

>  <r_i_glide_ligand_efficiency_sa>  (1) 
-0.35257483451540877

>  <r_i_glide_lipo>  (1) 
-2.5888243264411628

>  <r_i_glide_metal>  (1) 
-0

>  <r_i_glide_rewards>  (1) 
-1.6738597392029302

>  <r_lp_Energy>  (1) 
0.63202399999999992

>  <r_lp_tautomer_probability>  (1) 
1

>  <s_epik_cmdline>  (1) 
J2VwaWtfcHl0aG9uJywgJy1waHQnLCAnMS4wJywgJy1waCcsICc3LjQnLCAnLXRuJywgJzgnLCAnLW1hJywgJzUwMCcsICctaW1hZScsICc8aW5maWxlLm1hZT4nLCAnLW9tYWUnLCAnPG91dGZpbGUubWFlPic=

>  <s_epik_input>  (1) 
Tz1DMVtDSDJdW0NASF0oW0NIM10pW0NAQEhdMltDSDJdW0NIMl1bQ0BIXShbQ0BASF0zTjEyKUMoW0NASF0oW0NIMl1bQ0gyXTMpW0NIMl1bQ0gyXVtDSDNdKT1DPVtDSF1TW0NIMl1bQ0gyXVtDSDJdQyhbQ0gzXSkoW0NIM10pW0NIMl1bQ0hdPVtDSDJd

>  <s_glide_docking_method>  (1) 
confgen

>  <s_i_glide_gridfile>  (1) 
gpcr_drd2_6luq_protein_autoprepared_prepared

>  <s_lp_Force_Field>  (1) 
S-OPLS

>  <s_lp_Variant>  (1) 
DiffSBDD_53-1

>  <s_m_source_file>  (1) 
generated_generic_title2_ligand_DiffSBDD_2026-06-23_prepared.sdf

>  <GenAI_Model>  (1) 
DiffSBDD

>  <Protein>  (1) 
generic_title2

$$$$
DiffSBDD_48
     RDKit          3D

  0  0  0  0  0  0  0  0  0  0999 V3000
M  V30 BEGIN CTAB
M  V30 COUNTS 50 51 0 0 1
M  V30 BEGIN ATOM
M  V30 1 C 12.175358 8.506697 -9.238803 0
M  V30 2 S 6.840802 6.326431 -14.663575 0
M  V30 3 O 12.776964 8.390226 -10.242843 0
M  V30 4 N 7.469346 1.916113 -17.831438 0
M  V30 5 C 9.365476 6.061177 -10.788280 0
M  V30 6 C 7.567852 4.790235 -9.741950 0
M  V30 7 O 5.536048 6.237213 -15.336013 0
M  V30 8 C 11.249456 8.412787 -5.163428 0
M  V30 9 O 10.631157 6.415455 -8.325955 0
M  V30 10 O 7.375409 7.590234 -14.141158 0
M  V30 11 N 6.828312 5.164715 -13.370968 0
M  V30 12 C 7.740736 3.318106 -14.698237 0
M  V30 13 C 10.580531 7.604414 -7.545782 0 CFG=2
M  V30 14 C 8.716550 5.953618 -12.032150 0
M  V30 15 C 7.215314 0.720596 -18.188676 0
M  V30 16 N 8.033465 5.562309 -15.644422 0
M  V30 17 C 7.482253 5.272117 -12.131226 0
M  V30 18 C 9.472734 5.597709 -8.291343 0
M  V30 19 C 11.503388 8.670034 -8.122935 0
M  V30 20 C 6.911354 4.692531 -10.979585 0
M  V30 21 C 6.607944 3.781516 -13.779300 0
M  V30 22 O 9.769581 1.521900 -17.584926 0
M  V30 23 C 8.788527 5.479718 -9.639430 0
M  V30 24 C 8.776817 2.251625 -17.498207 0
M  V30 25 C 8.925048 3.692869 -16.981363 0
M  V30 26 C 7.823226 4.154622 -15.997562 0 CFG=1
M  V30 27 C 10.930381 7.227781 -6.088269 0
M  V30 28 H 10.302933 6.590446 -10.716245 0
M  V30 29 H 7.129157 4.342861 -8.864931 0
M  V30 30 H 11.375452 8.077196 -4.134223 0
M  V30 31 H 12.175430 8.910810 -5.448044 0
M  V30 32 H 10.454170 9.156082 -5.185085 0
M  V30 33 H 8.664323 3.397138 -14.132638 0
M  V30 34 H 7.598923 2.262237 -14.928652 0
M  V30 35 H 9.579056 8.038931 -7.585722 0
M  V30 36 H 9.164032 6.395435 -12.907911 0
M  V30 37 H 6.196647 0.430366 -18.459110 0
M  V30 38 H 8.003100 -0.038303 -18.232525 0
M  V30 39 H 8.978594 5.775122 -15.328508 0
M  V30 40 H 9.775268 4.599272 -7.985517 0
M  V30 41 H 8.745525 5.936925 -7.550723 0
M  V30 42 H 11.581028 9.589927 -7.564722 0
M  V30 43 H 5.968325 4.170614 -11.045857 0
M  V30 44 H 6.510474 3.085736 -12.946420 0
M  V30 45 H 5.666521 3.743019 -14.313006 0
M  V30 46 H 8.938366 4.351994 -17.850544 0
M  V30 47 H 9.903987 3.793595 -16.510002 0
M  V30 48 H 6.864779 4.102295 -16.510279 0
M  V30 49 H 10.101206 6.663508 -5.660010 0
M  V30 50 H 11.775410 6.541608 -6.087026 0
M  V30 END ATOM
M  V30 BEGIN BOND
M  V30 1 2 3 1
M  V30 2 2 7 2
M  V30 3 2 10 2
M  V30 4 1 11 2
M  V30 5 1 13 9
M  V30 6 2 14 5
M  V30 7 2 15 4
M  V30 8 1 16 2
M  V30 9 1 17 11
M  V30 10 1 17 14
M  V30 11 1 18 9
M  V30 12 2 19 1
M  V30 13 1 19 13
M  V30 14 1 20 6
M  V30 15 2 20 17
M  V30 16 1 21 11
M  V30 17 1 21 12
M  V30 18 1 23 5
M  V30 19 2 23 6
M  V30 20 1 23 18
M  V30 21 1 24 4
M  V30 22 2 24 22
M  V30 23 1 25 24
M  V30 24 1 26 12
M  V30 25 1 26 16
M  V30 26 1 26 25
M  V30 27 1 27 8
M  V30 28 1 27 13
M  V30 29 1 28 5
M  V30 30 1 29 6
M  V30 31 1 30 8
M  V30 32 1 31 8
M  V30 33 1 32 8
M  V30 34 1 33 12
M  V30 35 1 34 12
M  V30 36 1 13 35 CFG=1
M  V30 37 1 36 14
M  V30 38 1 37 15
M  V30 39 1 38 15
M  V30 40 1 39 16
M  V30 41 1 40 18
M  V30 42 1 41 18
M  V30 43 1 42 19
M  V30 44 1 43 20
M  V30 45 1 44 21
M  V30 46 1 45 21
M  V30 47 1 46 25
M  V30 48 1 47 25
M  V30 49 1 26 48 CFG=3
M  V30 50 1 49 27
M  V30 51 1 50 27
M  V30 END BOND
M  V30 END CTAB
M  END
>  <i_epik_Tot_Q>  (1) 
0

>  <i_epik_Tot_abs_Q>  (1) 
0

>  <i_i_glide_confnum>  (1) 
204

>  <i_i_glide_lignum>  (1) 
77

>  <i_i_glide_posenum>  (1) 
150

>  <i_i_glide_rotatable_bonds>  (1) 
9

>  <i_lp_mmshare_version>  (1) 
72125

>  <i_m_source_file_index>  (1) 
49

>  <i_f3d_flags>  (1) 
0

>  <num_sample>  (1) 
100

>  <b_lp_Chiralities_Consistent>  (1) 
1

>  <r_epik_Charging_Adjusted_Penalty>  (1) 
0.28919108410989852

>  <r_epik_Ionization_Penalty>  (1) 
0.28919108415051159

>  <r_epik_Ionization_Penalty_Charging>  (1) 
0

>  <r_epik_Ionization_Penalty_Neutral>  (1) 
0.28919108415051159

>  <r_epik_State_Penalty>  (1) 
0.28919108410989852

>  <r_glide_ring_energy>  (1) 
0

>  <r_i_docking_score>  (1) 
-3.4016218069365922

>  <r_i_glide_ecoul>  (1) 
-0.67479757709793375

>  <r_i_glide_eff_state_penalty>  (1) 
0.28919108410989852

>  <r_i_glide_einternal>  (1) 
7.9783868892582666

>  <r_i_glide_emodel>  (1) 
-39.303890387387362

>  <r_i_glide_emodel_strain>  (1) 
0.32935533194979172

>  <r_i_glide_energy>  (1) 
-35.566743982381567

>  <r_i_glide_erotb>  (1) 
1.0094699416249397

>  <r_i_glide_esite>  (1) 
0

>  <r_i_glide_evdw>  (1) 
-34.891946405283633

>  <r_i_glide_gscore>  (1) 
-3.6908128910464906

>  <r_i_glide_gscore_strain>  (1) 
0

>  <r_i_glide_hbond>  (1) 
0

>  <r_i_glide_ligand_efficiency>  (1) 
-0.1259859928495034

>  <r_i_glide_ligand_efficiency_ln>  (1) 
-0.79184147653645198

>  <r_i_glide_ligand_efficiency_sa>  (1) 
-0.37795797854851032

>  <r_i_glide_lipo>  (1) 
-1.4494463463350289

>  <r_i_glide_metal>  (1) 
-0

>  <r_i_glide_rewards>  (1) 
-1.4050195295075305

>  <r_lp_Energy>  (1) 
31.284617999999998

>  <s_epik_Chemistry_Notes>  (1) 
This compound has an imine and may undergo hydrolysis.

>  <s_epik_cmdline>  (1) 
J2VwaWtfcHl0aG9uJywgJy1waHQnLCAnMS4wJywgJy1waCcsICc3LjQnLCAnLXRuJywgJzgnLCAnLW1hJywgJzUwMCcsICctaW1hZScsICc8aW5maWxlLm1hZT4nLCAnLW9tYWUnLCAnPG91dGZpbGUubWFlPic=

>  <s_epik_input>  (1) 
Tz1DPVtDSF1bQ0BIXShbQ0gyXVtDSDNdKU9bQ0gyXWMoW2NIXVtjSF0xKVtjSF1bY0hdYzFOKFMyKD1PKT1PKVtDSDJdW0NIMl1bQ0BASF0oW05IXTIpW0NIMl1DKD1PKU49W0NIMl0=

>  <s_glide_docking_method>  (1) 
confgen

>  <s_i_glide_gridfile>  (1) 
gpcr_drd2_6luq_protein_autoprepared_prepared

>  <s_lp_Force_Field>  (1) 
S-OPLS

>  <s_lp_Variant>  (1) 
DiffSBDD_48-1

>  <s_m_source_file>  (1) 
generated_generic_title2_ligand_DiffSBDD_2026-06-23_prepared.sdf

>  <GenAI_Model>  (1) 
DiffSBDD

>  <Protein>  (1) 
generic_title2

$$$$
DiffSBDD_45
     RDKit          3D

  0  0  0  0  0  0  0  0  0  0999 V3000
M  V30 BEGIN CTAB
M  V30 COUNTS 68 71 0 0 1
M  V30 BEGIN ATOM
M  V30 1 C 11.404154 7.523391 -8.249408 0 CFG=2
M  V30 2 C 12.563258 9.232469 -3.698963 0
M  V30 3 C 5.780258 7.090316 -15.410736 0 CFG=2
M  V30 4 C 10.392052 6.444998 -8.571071 0
M  V30 5 C 10.912203 8.583720 -7.245920 0 CFG=2
M  V30 6 C 3.218644 6.853665 -17.112524 0
M  V30 7 C 9.554937 7.708742 -10.583280 0
M  V30 8 O 12.010138 8.087857 -9.407889 0
M  V30 9 C 11.776365 8.481661 -5.991853 0
M  V30 10 N 5.680854 7.019856 -16.883452 0
M  V30 11 C 4.877328 6.410932 -18.968424 0
M  V30 12 C 7.191338 5.403896 -12.068376 0
M  V30 13 C 8.055294 5.993478 -11.230167 0
M  V30 14 C 8.213665 7.852201 -12.636251 0
M  V30 15 C 6.367352 6.161565 -19.018880 0
M  V30 16 N 8.587339 7.216022 -11.488661 0
M  V30 17 O 6.697066 4.501609 -15.276663 0
M  V30 18 C 4.578948 6.271270 -17.477582 0 CFG=2
M  V30 19 N 6.797354 6.049756 -13.256553 0
M  V30 20 O 9.535736 8.476919 -6.919777 0
M  V30 21 C 6.860366 6.664155 -17.661841 0
M  V30 22 C 11.297758 10.790106 -5.200782 0
M  V30 23 C 11.491973 9.356361 -4.787384 0
M  V30 24 C 8.547946 5.412305 -9.954390 0
M  V30 25 C 13.388391 8.390343 -9.282936 0
M  V30 26 C 6.974155 7.868330 -14.828967 0
M  V30 27 C 9.567500 6.518725 -9.622546 0
M  V30 28 O 4.575439 5.175242 -13.985034 0
M  V30 29 S 5.887490 5.478629 -14.534663 0
M  V30 30 C 7.357008 7.300208 -13.508257 0
M  V30 31 C 10.370544 5.278509 -7.623788 0
M  V30 32 H 12.175076 6.942816 -7.758126 0
M  V30 33 H 13.535330 9.559758 -4.070438 0
M  V30 34 H 12.312424 9.853714 -2.837348 0
M  V30 35 H 12.655974 8.203163 -3.348649 0
M  V30 36 H 4.896420 7.591991 -15.032333 0
M  V30 37 H 11.087501 9.556194 -7.694738 0
M  V30 38 H 2.575486 6.889994 -17.987594 0
M  V30 39 H 2.722737 6.217770 -16.385030 0
M  V30 40 H 3.270565 7.870067 -16.721530 0
M  V30 41 H 9.230356 8.624015 -10.090565 0
M  V30 42 H 10.495071 7.843064 -11.114354 0
M  V30 43 H 11.775467 7.444592 -5.650232 0
M  V30 44 H 12.764224 8.790229 -6.333051 0
M  V30 45 H 4.652418 7.421028 -19.315254 0
M  V30 46 H 4.311785 5.712229 -19.582758 0
M  V30 47 H 6.749560 4.431158 -11.909843 0
M  V30 48 H 8.690097 8.806456 -12.785091 0
M  V30 49 H 6.841054 6.675277 -19.856534 0
M  V30 50 H 6.568066 5.094350 -19.115543 0
M  V30 51 H 4.636697 5.207242 -17.226064 0
M  V30 52 H 9.227957 7.595096 -7.078847 0
M  V30 53 H 7.375336 7.588869 -17.839713 0
M  V30 54 H 7.512587 5.948125 -17.165923 0
M  V30 55 H 12.175392 11.195987 -5.669083 0
M  V30 56 H 10.575412 10.809448 -5.985953 0
M  V30 57 H 10.960313 11.424210 -4.385132 0
M  V30 58 H 10.575476 8.988751 -4.385147 0
M  V30 59 H 9.012445 4.436655 -10.099451 0
M  V30 60 H 7.756644 5.366158 -9.205383 0
M  V30 61 H 13.744480 8.789941 -10.231947 0
M  V30 62 H 13.568672 9.127684 -8.502102 0
M  V30 63 H 13.994424 7.517418 -9.063296 0
M  V30 64 H 7.016901 8.933628 -14.993046 0
M  V30 65 H 7.865530 7.420181 -15.185015 0
M  V30 66 H 9.996725 5.596760 -6.651524 0
M  V30 67 H 9.739471 4.468163 -7.985131 0
M  V30 68 H 11.375401 4.882386 -7.494272 0
M  V30 END ATOM
M  V30 BEGIN BOND
M  V30 1 1 4 1
M  V30 2 1 5 1
M  V30 3 1 8 1
M  V30 4 1 9 5
M  V30 5 1 10 3
M  V30 6 2 13 12
M  V30 7 1 15 11
M  V30 8 1 16 7
M  V30 9 1 16 13
M  V30 10 1 16 14
M  V30 11 1 18 6
M  V30 12 1 18 10
M  V30 13 1 18 11
M  V30 14 1 19 12
M  V30 15 1 20 5
M  V30 16 1 21 10
M  V30 17 1 21 15
M  V30 18 1 23 2
M  V30 19 1 23 9
M  V30 20 1 23 22
M  V30 21 1 24 13
M  V30 22 1 25 8
M  V30 23 1 26 3
M  V30 24 2 27 4
M  V30 25 1 27 7
M  V30 26 1 27 24
M  V30 27 1 29 3
M  V30 28 2 29 17
M  V30 29 1 29 19
M  V30 30 2 29 28
M  V30 31 2 30 14
M  V30 32 1 30 19
M  V30 33 1 30 26
M  V30 34 1 31 4
M  V30 35 1 1 32 CFG=1
M  V30 36 1 33 2
M  V30 37 1 34 2
M  V30 38 1 35 2
M  V30 39 1 3 36 CFG=1
M  V30 40 1 5 37 CFG=3
M  V30 41 1 38 6
M  V30 42 1 39 6
M  V30 43 1 40 6
M  V30 44 1 41 7
M  V30 45 1 42 7
M  V30 46 1 43 9
M  V30 47 1 44 9
M  V30 48 1 45 11
M  V30 49 1 46 11
M  V30 50 1 47 12
M  V30 51 1 48 14
M  V30 52 1 49 15
M  V30 53 1 50 15
M  V30 54 1 18 51 CFG=1
M  V30 55 1 52 20
M  V30 56 1 53 21
M  V30 57 1 54 21
M  V30 58 1 55 22
M  V30 59 1 56 22
M  V30 60 1 57 22
M  V30 61 1 58 23
M  V30 62 1 59 24
M  V30 63 1 60 24
M  V30 64 1 61 25
M  V30 65 1 62 25
M  V30 66 1 63 25
M  V30 67 1 64 26
M  V30 68 1 65 26
M  V30 69 1 66 31
M  V30 70 1 67 31
M  V30 71 1 68 31
M  V30 END BOND
M  V30 END CTAB
M  END
>  <i_epik_Tot_Q>  (1) 
0

>  <i_epik_Tot_abs_Q>  (1) 
0

>  <i_i_glide_confnum>  (1) 
88

>  <i_i_glide_lignum>  (1) 
74

>  <i_i_glide_posenum>  (1) 
92

>  <i_i_glide_rotatable_bonds>  (1) 
7

>  <i_lp_mmshare_version>  (1) 
72125

>  <i_m_source_file_index>  (1) 
46

>  <i_f3d_flags>  (1) 
0

>  <num_sample>  (1) 
100

>  <b_lp_Chiralities_Consistent>  (1) 
1

>  <r_epik_Charging_Adjusted_Penalty>  (1) 
5.5386030856760706e-14

>  <r_epik_Ionization_Penalty>  (1) 
0.0003901755545231811

>  <r_epik_Ionization_Penalty_Charging>  (1) 
5.5386030856760706e-14

>  <r_epik_Ionization_Penalty_Neutral>  (1) 
0.00039017555446779507

>  <r_epik_State_Penalty>  (1) 
-0

>  <r_glide_ring_energy>  (1) 
0

>  <r_i_docking_score>  (1) 
-3.3925795630185203

>  <r_i_glide_ecoul>  (1) 
0.010241112045871303

>  <r_i_glide_eff_state_penalty>  (1) 
-0

>  <r_i_glide_einternal>  (1) 
14.365875949636333

>  <r_i_glide_emodel>  (1) 
-1.4206758678974616

>  <r_i_glide_emodel_strain>  (1) 
5.2390650912428072

>  <r_i_glide_energy>  (1) 
-9.3202040247209972

>  <r_i_glide_erotb>  (1) 
0.39335991316148761

>  <r_i_glide_esite>  (1) 
-0.10000000000000001

>  <r_i_glide_evdw>  (1) 
-9.330445136766869

>  <r_i_glide_gscore>  (1) 
-3.3925795630185203

>  <r_i_glide_gscore_strain>  (1) 
0.30976627281070179

>  <r_i_glide_hbond>  (1) 
0

>  <r_i_glide_ligand_efficiency>  (1) 
-0.10943805041995226

>  <r_i_glide_ligand_efficiency_ln>  (1) 
-0.76513066153794884

>  <r_i_glide_ligand_efficiency_sa>  (1) 
-0.34378657422467185

>  <r_i_glide_lipo>  (1) 
-2.7742443061483812

>  <r_i_glide_metal>  (1) 
-0

>  <r_i_glide_rewards>  (1) 
-0.75647535281086553

>  <r_lp_Energy>  (1) 
32.319353999999997

>  <r_lp_tautomer_probability>  (1) 
1

>  <s_epik_Chemistry_Notes>  (1) 
This compound has an imine and may undergo hydrolysis.

>  <s_epik_cmdline>  (1) 
J2VwaWtfcHl0aG9uJywgJy1waHQnLCAnMS4wJywgJy1waCcsICc3LjQnLCAnLXRuJywgJzgnLCAnLW1hJywgJzUwMCcsICctaW1hZScsICc8aW5maWxlLm1hZT4nLCAnLW9tYWUnLCAnPG91dGZpbGUubWFlPic=

>  <s_epik_input>  (1) 
W0NIM11bQ0hdKFtDSDNdKVtDSDJdW0NASF0oW09IXSlbQ0BIXShPW0NIM10pL0MoW0NIM10pPUMoW0NIMl0xKVxbQ0gyXU4oQzEyKVtDSF09QzNOKFtDSF09MilTKD1PKSg9TylbQ0BASF0oW0NIMl0zKU40W0NAQEhdKFtDSDNdKVtDSDJdW0NIMl1bQ0gyXTQ=

>  <s_glide_docking_method>  (1) 
confgen

>  <s_i_glide_gridfile>  (1) 
gpcr_drd2_6luq_protein_autoprepared_prepared

>  <s_lp_Force_Field>  (1) 
S-OPLS

>  <s_lp_Variant>  (1) 
DiffSBDD_45-2

>  <s_m_source_file>  (1) 
generated_generic_title2_ligand_DiffSBDD_2026-06-23_prepared.sdf

>  <GenAI_Model>  (1) 
DiffSBDD

>  <Protein>  (1) 
generic_title2

$$$$
DiffSBDD_26
     RDKit          3D

  0  0  0  0  0  0  0  0  0  0999 V3000
M  V30 BEGIN CTAB
M  V30 COUNTS 56 58 0 0 1
M  V30 BEGIN ATOM
M  V30 1 C 7.390562 7.209855 -14.719740 0
M  V30 2 O 7.504105 0.869731 -15.665743 0
M  V30 3 C 6.864476 6.448203 -17.832085 0 CFG=1
M  V30 4 C 6.116099 4.036937 -10.795462 0
M  V30 5 C 5.346117 5.016881 -19.371226 0
M  V30 6 C 8.264711 4.954242 -14.428869 0
M  V30 7 C 6.177778 5.164539 -12.906607 0 CFG=2
M  V30 8 C 5.696368 5.486197 -10.570354 0
M  V30 9 C 7.263303 7.822405 -12.183755 0
M  V30 10 N 5.529994 6.062381 -11.913558 0 CFG=1 CHG=1
M  V30 11 N 6.793673 2.729517 -12.785007 0
M  V30 12 C 8.074139 6.379922 -18.785033 0
M  V30 13 C 6.321232 2.050027 -13.980094 0
M  V30 14 C 5.774089 7.515159 -12.035491 0
M  V30 15 C 5.536878 6.354866 -18.630842 0
M  V30 16 C 7.898236 6.985542 -13.283535 0 CFG=1
M  V30 17 C 7.937493 5.990245 -15.512006 0 CFG=1
M  V30 18 C 5.920658 3.790033 -12.295883 0 CFG=1
M  V30 19 O 8.835108 5.414243 -18.774897 0
M  V30 20 C 6.977485 5.482815 -16.615633 0
M  V30 21 O 7.963640 0.390233 -13.539044 0 CHG=-1
M  V30 22 C 7.687078 5.492103 -13.104504 0 CFG=2
M  V30 23 C 4.313725 6.737397 -17.774239 0
M  V30 24 C 7.350136 1.012996 -14.433985 0
M  V30 25 H 7.672962 8.185340 -15.099676 0
M  V30 26 H 6.302454 7.210276 -14.758681 0
M  V30 27 H 6.878224 7.456522 -17.423915 0
M  V30 28 H 5.568685 3.331039 -10.174249 0
M  V30 29 H 7.172580 3.990192 -10.529180 0
M  V30 30 H 5.353885 4.169645 -18.688709 0
M  V30 31 H 6.134377 4.843595 -20.103596 0
M  V30 32 H 4.403660 5.002068 -19.919448 0
M  V30 33 H 7.951986 3.956805 -14.710565 0
M  V30 34 H 9.348966 4.886616 -14.324381 0
M  V30 35 H 5.642109 5.246779 -13.851716 0
M  V30 36 H 4.770103 5.589640 -10.002351 0
M  V30 37 H 6.480854 5.990007 -10.017658 0
M  V30 38 H 7.796789 7.602822 -11.259972 0
M  V30 39 H 7.424616 8.881625 -12.363317 0
M  V30 40 H 6.983685 2.006818 -12.101463 0
M  V30 41 H 8.198079 7.235226 -19.448443 0
M  V30 42 H 5.374846 1.546416 -13.779973 0
M  V30 43 H 6.175438 2.766734 -14.785812 0
M  V30 44 H 5.219641 7.872576 -12.902064 0
M  V30 45 H 5.350040 8.046086 -11.185033 0
M  V30 46 H 5.586486 7.118988 -19.409447 0
M  V30 47 H 8.969269 7.167806 -13.184770 0
M  V30 48 H 8.901967 6.201765 -15.969778 0
M  V30 49 H 4.874006 3.590263 -12.497304 0
M  V30 50 H 6.003582 5.313755 -16.165449 0
M  V30 51 H 7.296391 4.495282 -16.955032 0
M  V30 52 H 8.271205 5.130147 -12.257744 0
M  V30 53 H 4.089593 5.990252 -17.014641 0
M  V30 54 H 3.419168 6.848995 -18.385309 0
M  V30 55 H 4.474331 7.689382 -17.267077 0
M  V30 56 H 4.543913 5.958986 -12.090734 0
M  V30 END ATOM
M  V30 BEGIN BOND
M  V30 1 1 8 4
M  V30 2 1 10 7
M  V30 3 1 10 8
M  V30 4 1 12 3
M  V30 5 1 13 11
M  V30 6 1 14 9
M  V30 7 1 14 10
M  V30 8 1 15 3
M  V30 9 1 15 5
M  V30 10 1 16 1
M  V30 11 1 16 9
M  V30 12 1 17 1
M  V30 13 1 17 6
M  V30 14 1 18 4
M  V30 15 1 18 7
M  V30 16 1 18 11
M  V30 17 2 19 12
M  V30 18 1 20 3
M  V30 19 1 20 17
M  V30 20 1 22 6
M  V30 21 1 22 7
M  V30 22 1 22 16
M  V30 23 1 23 15
M  V30 24 2 24 2
M  V30 25 1 24 13
M  V30 26 1 24 21
M  V30 27 1 25 1
M  V30 28 1 26 1
M  V30 29 1 3 27 CFG=1
M  V30 30 1 28 4
M  V30 31 1 29 4
M  V30 32 1 30 5
M  V30 33 1 31 5
M  V30 34 1 32 5
M  V30 35 1 33 6
M  V30 36 1 34 6
M  V30 37 1 7 35 CFG=3
M  V30 38 1 36 8
M  V30 39 1 37 8
M  V30 40 1 38 9
M  V30 41 1 39 9
M  V30 42 1 40 11
M  V30 43 1 41 12
M  V30 44 1 42 13
M  V30 45 1 43 13
M  V30 46 1 44 14
M  V30 47 1 45 14
M  V30 48 1 46 15
M  V30 49 1 16 47 CFG=3
M  V30 50 1 17 48 CFG=3
M  V30 51 1 18 49 CFG=1
M  V30 52 1 50 20
M  V30 53 1 51 20
M  V30 54 1 22 52 CFG=1
M  V30 55 1 53 23
M  V30 56 1 54 23
M  V30 57 1 55 23
M  V30 58 1 10 56 CFG=3
M  V30 END BOND
M  V30 END CTAB
M  END
>  <i_epik_Tot_Q>  (1) 
0

>  <i_epik_Tot_abs_Q>  (1) 
2

>  <i_i_glide_confnum>  (1) 
61

>  <i_i_glide_lignum>  (1) 
45

>  <i_i_glide_posenum>  (1) 
207

>  <i_i_glide_rotatable_bonds>  (1) 
7

>  <i_lp_mmshare_version>  (1) 
72125

>  <i_m_source_file_index>  (1) 
27

>  <i_f3d_flags>  (1) 
0

>  <num_sample>  (1) 
100

>  <b_lp_Chiralities_Consistent>  (1) 
1

>  <r_epik_Charging_Adjusted_Penalty>  (1) 
0.19178745009715187

>  <r_epik_Ionization_Penalty>  (1) 
0.029917907437945299

>  <r_epik_Ionization_Penalty_Charging>  (1) 
0.0050195782491265998

>  <r_epik_Ionization_Penalty_Neutral>  (1) 
0.024898329188818697

>  <r_epik_State_Penalty>  (1) 
0.18676787184802526

>  <r_glide_ring_energy>  (1) 
0

>  <r_i_docking_score>  (1) 
-3.3917888118043455

>  <r_i_glide_ecoul>  (1) 
-0.07618319300551768

>  <r_i_glide_eff_state_penalty>  (1) 
0.18676787184802526

>  <r_i_glide_einternal>  (1) 
5.3183190666284768

>  <r_i_glide_emodel>  (1) 
-16.738156049203557

>  <r_i_glide_emodel_strain>  (1) 
0.17580476599023598

>  <r_i_glide_energy>  (1) 
-14.528990134867591

>  <r_i_glide_erotb>  (1) 
0.66727664270853937

>  <r_i_glide_esite>  (1) 
-0.052030024537764397

>  <r_i_glide_evdw>  (1) 
-14.452806941862073

>  <r_i_glide_gscore>  (1) 
-3.578556683652371

>  <r_i_glide_gscore_strain>  (1) 
0

>  <r_i_glide_hbond>  (1) 
0

>  <r_i_glide_ligand_efficiency>  (1) 
-0.14132453382518106

>  <r_i_glide_ligand_efficiency_ln>  (1) 
-0.8118107017117776

>  <r_i_glide_ligand_efficiency_sa>  (1) 
-0.4076504963665244

>  <r_i_glide_lipo>  (1) 
-1.6149031528094482

>  <r_i_glide_metal>  (1) 
-0

>  <r_i_glide_rewards>  (1) 
-1.8448323229697667

>  <r_lp_Energy>  (1) 
35.064892999999998

>  <r_lp_tautomer_probability>  (1) 
0.99990000499974985

>  <s_epik_cmdline>  (1) 
J2VwaWtfcHl0aG9uJywgJy1waHQnLCAnMS4wJywgJy1waCcsICc3LjQnLCAnLXRuJywgJzgnLCAnLW1hJywgJzUwMCcsICctaW1hZScsICc8aW5maWxlLm1hZT4nLCAnLW9tYWUnLCAnPG91dGZpbGUubWFlPic=

>  <s_epik_input>  (1) 
W0NIM11bQ0hdKFtDSDNdKVtDQEhdKFtDSF09TylbQ0gyXVtDQEBIXShbQ0gyXTEpW0NIMl1bQ0BIXTJbQ0BASF0xW0NIMl1bQ0gyXU4oW0NAQEhdMjMpW0NIMl1bQ0gyXVtDQEBIXTNbTkhdW0NIMl1DKD1PKVtPSF0=

>  <s_glide_docking_method>  (1) 
confgen

>  <s_i_glide_gridfile>  (1) 
gpcr_drd2_6luq_protein_autoprepared_prepared

>  <s_lp_Force_Field>  (1) 
S-OPLS

>  <s_lp_Variant>  (1) 
DiffSBDD_26-1

>  <s_m_source_file>  (1) 
generated_generic_title2_ligand_DiffSBDD_2026-06-23_prepared.sdf

>  <GenAI_Model>  (1) 
DiffSBDD

>  <Protein>  (1) 
generic_title2

$$$$
DiffSBDD_48
     RDKit          3D

  0  0  0  0  0  0  0  0  0  0999 V3000
M  V30 BEGIN CTAB
M  V30 COUNTS 50 51 0 0 1
M  V30 BEGIN ATOM
M  V30 1 C 11.746079 9.647523 -6.237994 0
M  V30 2 S 6.675725 6.232600 -13.791960 0
M  V30 3 O 11.775408 10.790237 -5.985095 0
M  V30 4 N 7.503858 4.557832 -18.186057 0
M  V30 5 C 8.320571 5.079596 -9.007659 0
M  V30 6 C 9.775489 6.464569 -10.389994 0
M  V30 7 O 5.375454 5.853809 -14.354613 0
M  V30 8 C 11.980382 6.859983 -3.768676 0
M  V30 9 O 9.764502 6.964593 -6.947730 0
M  V30 10 O 6.978580 7.589264 -13.323842 0
M  V30 11 N 7.020800 5.121091 -12.506669 0
M  V30 12 C 8.156338 3.472604 -13.950101 0
M  V30 13 C 10.631335 7.466302 -5.928715 0 CFG=2
M  V30 14 C 7.503114 4.822049 -10.127949 0
M  V30 15 C 7.123355 5.254743 -19.180798 0
M  V30 16 N 7.895219 5.721235 -14.878466 0
M  V30 17 C 7.825841 5.384319 -11.383875 0
M  V30 18 C 10.360075 6.144986 -7.945837 0
M  V30 19 C 11.686885 8.377932 -6.517292 0
M  V30 20 C 8.965000 6.208259 -11.508079 0
M  V30 21 C 7.051401 3.716960 -12.904602 0
M  V30 22 O 9.609316 5.588739 -18.071727 0
M  V30 23 C 9.459964 5.894845 -9.139629 0
M  V30 24 C 8.747093 4.825389 -17.625015 0
M  V30 25 C 9.002642 4.057792 -16.320609 0
M  V30 26 C 7.932440 4.300642 -15.232769 0 CFG=1
M  V30 27 C 11.242855 6.367219 -5.032912 0
M  V30 28 H 8.074856 4.645838 -8.049871 0
M  V30 29 H 10.647979 7.091558 -10.493209 0
M  V30 30 H 12.251485 6.011827 -3.139940 0
M  V30 31 H 12.893547 7.409697 -3.985041 0
M  V30 32 H 11.375425 7.518899 -3.156159 0
M  V30 33 H 9.125432 3.710746 -13.510067 0
M  V30 34 H 8.175396 2.410974 -14.200138 0
M  V30 35 H 9.982770 8.067126 -5.291850 0
M  V30 36 H 6.629716 4.195123 -10.023298 0
M  V30 37 H 6.154927 5.063167 -19.650953 0
M  V30 38 H 7.750365 6.056052 -19.584808 0
M  V30 39 H 8.804326 6.111773 -14.637688 0
M  V30 40 H 11.283741 6.569077 -8.331702 0
M  V30 41 H 10.631917 5.190239 -7.508854 0
M  V30 42 H 12.402898 7.925988 -7.185086 0
M  V30 43 H 9.219209 6.640906 -12.462653 0
M  V30 44 H 7.194260 3.056671 -12.055032 0
M  V30 45 H 6.079903 3.452888 -13.323864 0
M  V30 46 H 9.979519 4.362487 -15.939436 0
M  V30 47 H 9.070500 2.994822 -16.554638 0
M  V30 48 H 6.955659 4.025664 -15.632916 0
M  V30 49 H 10.433306 5.721530 -4.702436 0
M  V30 50 H 11.918158 5.737615 -5.612561 0
M  V30 END ATOM
M  V30 BEGIN BOND
M  V30 1 2 3 1
M  V30 2 2 7 2
M  V30 3 2 10 2
M  V30 4 1 11 2
M  V30 5 1 13 9
M  V30 6 2 14 5
M  V30 7 2 15 4
M  V30 8 1 16 2
M  V30 9 1 17 11
M  V30 10 1 17 14
M  V30 11 1 18 9
M  V30 12 2 19 1
M  V30 13 1 19 13
M  V30 14 1 20 6
M  V30 15 2 20 17
M  V30 16 1 21 11
M  V30 17 1 21 12
M  V30 18 1 23 5
M  V30 19 2 23 6
M  V30 20 1 23 18
M  V30 21 1 24 4
M  V30 22 2 24 22
M  V30 23 1 25 24
M  V30 24 1 26 12
M  V30 25 1 26 16
M  V30 26 1 26 25
M  V30 27 1 27 8
M  V30 28 1 27 13
M  V30 29 1 28 5
M  V30 30 1 29 6
M  V30 31 1 30 8
M  V30 32 1 31 8
M  V30 33 1 32 8
M  V30 34 1 33 12
M  V30 35 1 34 12
M  V30 36 1 13 35 CFG=1
M  V30 37 1 36 14
M  V30 38 1 37 15
M  V30 39 1 38 15
M  V30 40 1 39 16
M  V30 41 1 40 18
M  V30 42 1 41 18
M  V30 43 1 42 19
M  V30 44 1 43 20
M  V30 45 1 44 21
M  V30 46 1 45 21
M  V30 47 1 46 25
M  V30 48 1 47 25
M  V30 49 1 26 48 CFG=3
M  V30 50 1 49 27
M  V30 51 1 50 27
M  V30 END BOND
M  V30 END CTAB
M  END
>  <i_epik_Tot_Q>  (1) 
0

>  <i_epik_Tot_abs_Q>  (1) 
0

>  <i_i_glide_confnum>  (1) 
308

>  <i_i_glide_lignum>  (1) 
77

>  <i_i_glide_posenum>  (1) 
17

>  <i_i_glide_rotatable_bonds>  (1) 
9

>  <i_lp_mmshare_version>  (1) 
72125

>  <i_m_source_file_index>  (1) 
49

>  <i_f3d_flags>  (1) 
0

>  <num_sample>  (1) 
100

>  <b_lp_Chiralities_Consistent>  (1) 
1

>  <r_epik_Charging_Adjusted_Penalty>  (1) 
0.28919108410989852

>  <r_epik_Ionization_Penalty>  (1) 
0.28919108415051159

>  <r_epik_Ionization_Penalty_Charging>  (1) 
0

>  <r_epik_Ionization_Penalty_Neutral>  (1) 
0.28919108415051159

>  <r_epik_State_Penalty>  (1) 
0.28919108410989852

>  <r_glide_ring_energy>  (1) 
0

>  <r_i_docking_score>  (1) 
-3.3817924006627842

>  <r_i_glide_ecoul>  (1) 
0.22190729937734277

>  <r_i_glide_eff_state_penalty>  (1) 
0.28919108410989852

>  <r_i_glide_einternal>  (1) 
6.0465610290736498

>  <r_i_glide_emodel>  (1) 
-38.884214983404902

>  <r_i_glide_emodel_strain>  (1) 
0.0066835897372463648

>  <r_i_glide_energy>  (1) 
-33.901764250367769

>  <r_i_glide_erotb>  (1) 
1.0094699416249397

>  <r_i_glide_esite>  (1) 
0

>  <r_i_glide_evdw>  (1) 
-34.123671549745112

>  <r_i_glide_gscore>  (1) 
-3.6709834847726825

>  <r_i_glide_gscore_strain>  (1) 
0

>  <r_i_glide_hbond>  (1) 
0

>  <r_i_glide_ligand_efficiency>  (1) 
-0.12525157039491794

>  <r_i_glide_ligand_efficiency_ln>  (1) 
-0.78722551766922155

>  <r_i_glide_ligand_efficiency_sa>  (1) 
-0.3757547111847539

>  <r_i_glide_lipo>  (1) 
-1.6807147442004167

>  <r_i_glide_metal>  (1) 
-0

>  <r_i_glide_rewards>  (1) 
-1.3268411996165517

>  <r_lp_Energy>  (1) 
31.284617999999998

>  <s_epik_Chemistry_Notes>  (1) 
This compound has an imine and may undergo hydrolysis.

>  <s_epik_cmdline>  (1) 
J2VwaWtfcHl0aG9uJywgJy1waHQnLCAnMS4wJywgJy1waCcsICc3LjQnLCAnLXRuJywgJzgnLCAnLW1hJywgJzUwMCcsICctaW1hZScsICc8aW5maWxlLm1hZT4nLCAnLW9tYWUnLCAnPG91dGZpbGUubWFlPic=

>  <s_epik_input>  (1) 
Tz1DPVtDSF1bQ0BIXShbQ0gyXVtDSDNdKU9bQ0gyXWMoW2NIXVtjSF0xKVtjSF1bY0hdYzFOKFMyKD1PKT1PKVtDSDJdW0NIMl1bQ0BASF0oW05IXTIpW0NIMl1DKD1PKU49W0NIMl0=

>  <s_glide_docking_method>  (1) 
confgen

>  <s_i_glide_gridfile>  (1) 
gpcr_drd2_6luq_protein_autoprepared_prepared

>  <s_lp_Force_Field>  (1) 
S-OPLS

>  <s_lp_Variant>  (1) 
DiffSBDD_48-1

>  <s_m_source_file>  (1) 
generated_generic_title2_ligand_DiffSBDD_2026-06-23_prepared.sdf

>  <GenAI_Model>  (1) 
DiffSBDD

>  <Protein>  (1) 
generic_title2

$$$$
DiffSBDD_17
     RDKit          3D

  0  0  0  0  0  0  0  0  0  0999 V3000
M  V30 BEGIN CTAB
M  V30 COUNTS 42 43 0 0 1
M  V30 BEGIN ATOM
M  V30 1 Cl 6.447234 6.489418 -12.747451 0
M  V30 2 C 7.507597 4.961827 -10.773507 0
M  V30 3 C 6.877309 4.850924 -12.170691 0 CFG=2
M  V30 4 C 11.978327 7.422937 -2.996940 0
M  V30 5 C 5.851741 2.825298 -13.108312 0
M  V30 6 O 8.818498 5.469348 -10.916395 0
M  V30 7 C 9.678107 6.390595 -7.430516 0
M  V30 8 Cl 11.869341 9.190221 -9.307169 0
M  V30 9 C 7.634540 2.291939 -14.892759 0
M  V30 10 O 11.327068 7.463427 -5.325784 0
M  V30 11 O 12.975268 8.390261 -1.197745 0
M  V30 12 C 9.375411 6.113043 -9.843464 0
M  V30 13 O 8.133855 2.633456 -15.986503 0
M  V30 14 C 11.164706 8.234604 -6.504878 0
M  V30 15 C 10.239188 7.190273 -10.073230 0
M  V30 16 C 10.821288 7.872161 -8.997554 0
M  V30 17 C 6.869600 3.372585 -14.113131 0 CFG=2
M  V30 18 C 9.093450 5.705010 -8.515236 0
M  V30 19 C 7.801010 4.186835 -13.213522 0
M  V30 20 O 7.707920 1.154195 -14.378444 0 CHG=-1
M  V30 21 C 11.775490 8.276096 -4.251860 0
M  V30 22 C 5.603130 3.989912 -12.146182 0
M  V30 23 C 10.544458 7.477558 -7.669836 0
M  V30 24 N 11.951297 8.390104 -1.841838 0
M  V30 25 H 7.571766 3.990197 -10.296971 0
M  V30 26 H 6.885233 5.589241 -10.134206 0
M  V30 27 H 11.166852 6.710709 -2.844313 0
M  V30 28 H 12.923553 6.878276 -3.011494 0
M  V30 29 H 6.263758 1.987904 -12.542222 0
M  V30 30 H 4.940030 2.477151 -13.585014 0
M  V30 31 H 9.457914 6.085357 -6.417854 0
M  V30 32 H 12.149068 8.610472 -6.782551 0
M  V30 33 H 10.527800 9.099400 -6.308997 0
M  V30 34 H 10.453499 7.499362 -11.085221 0
M  V30 35 H 6.366529 4.040812 -14.813629 0
M  V30 36 H 8.429205 4.874901 -8.328970 0
M  V30 37 H 8.389463 4.914154 -13.774873 0
M  V30 38 H 8.507688 3.516897 -12.718574 0
M  V30 39 H 12.704480 8.790240 -4.503654 0
M  V30 40 H 11.031936 9.053722 -4.065633 0
M  V30 41 H 5.374871 3.627996 -11.143132 0
M  V30 42 H 4.741601 4.556709 -12.489771 0
M  V30 END ATOM
M  V30 BEGIN BOND
M  V30 1 1 3 1 CFG=3
M  V30 2 1 3 2
M  V30 3 1 6 2
M  V30 4 1 12 6
M  V30 5 2 13 9
M  V30 6 1 14 10
M  V30 7 2 15 12
M  V30 8 1 16 8
M  V30 9 1 16 15
M  V30 10 1 17 5
M  V30 11 1 17 9
M  V30 12 2 18 7
M  V30 13 1 18 12
M  V30 14 1 19 3
M  V30 15 1 19 17
M  V30 16 1 20 9
M  V30 17 1 21 4
M  V30 18 1 21 10
M  V30 19 1 22 3
M  V30 20 1 22 5
M  V30 21 1 23 7
M  V30 22 1 23 14
M  V30 23 2 23 16
M  V30 24 1 24 4
M  V30 25 2 24 11
M  V30 26 1 25 2
M  V30 27 1 26 2
M  V30 28 1 27 4
M  V30 29 1 28 4
M  V30 30 1 29 5
M  V30 31 1 30 5
M  V30 32 1 31 7
M  V30 33 1 32 14
M  V30 34 1 33 14
M  V30 35 1 34 15
M  V30 36 1 17 35 CFG=3
M  V30 37 1 36 18
M  V30 38 1 37 19
M  V30 39 1 38 19
M  V30 40 1 39 21
M  V30 41 1 40 21
M  V30 42 1 41 22
M  V30 43 1 42 22
M  V30 END BOND
M  V30 END CTAB
M  END
>  <i_epik_Tot_Q>  (1) 
-1

>  <i_epik_Tot_abs_Q>  (1) 
1

>  <i_i_glide_confnum>  (1) 
296

>  <i_i_glide_lignum>  (1) 
32

>  <i_i_glide_posenum>  (1) 
187

>  <i_i_glide_rotatable_bonds>  (1) 
9

>  <i_lp_mmshare_version>  (1) 
72125

>  <i_m_source_file_index>  (1) 
18

>  <i_f3d_flags>  (1) 
0

>  <num_sample>  (1) 
100

>  <b_lp_Chiralities_Consistent>  (1) 
1

>  <r_epik_Charging_Adjusted_Penalty>  (1) 
0.00012381605781317179

>  <r_epik_Ionization_Penalty>  (1) 
0.00012381605830283167

>  <r_epik_Ionization_Penalty_Charging>  (1) 
0.00012381605781317179

>  <r_epik_Ionization_Penalty_Neutral>  (1) 
4.8965987375008979e-13

>  <r_epik_State_Penalty>  (1) 
-0

>  <r_glide_ring_energy>  (1) 
0

>  <r_i_docking_score>  (1) 
-3.3705854588262909

>  <r_i_glide_ecoul>  (1) 
1.9284474623238397

>  <r_i_glide_eff_state_penalty>  (1) 
-0

>  <r_i_glide_einternal>  (1) 
4.1764724659380459

>  <r_i_glide_emodel>  (1) 
-33.979788208700043

>  <r_i_glide_emodel_strain>  (1) 
3.1458621693636886

>  <r_i_glide_energy>  (1) 
-32.569417158533227

>  <r_i_glide_erotb>  (1) 
0.96174401237487195

>  <r_i_glide_esite>  (1) 
0

>  <r_i_glide_evdw>  (1) 
-34.497864620857065

>  <r_i_glide_gscore>  (1) 
-3.3705854588262909

>  <r_i_glide_gscore_strain>  (1) 
0

>  <r_i_glide_hbond>  (1) 
0

>  <r_i_glide_ligand_efficiency>  (1) 
-0.14044106078442878

>  <r_i_glide_ligand_efficiency_ln>  (1) 
-0.8067357663856598

>  <r_i_glide_ligand_efficiency_sa>  (1) 
-0.40510211913971811

>  <r_i_glide_lipo>  (1) 
-1.4149576134062065

>  <r_i_glide_metal>  (1) 
-0

>  <r_i_glide_rewards>  (1) 
-1.4817457461006787

>  <r_lp_Energy>  (1) 
24.982256

>  <r_lp_tautomer_probability>  (1) 
1

>  <s_epik_cmdline>  (1) 
J2VwaWtfcHl0aG9uJywgJy1waHQnLCAnMS4wJywgJy1waCcsICc3LjQnLCAnLXRuJywgJzgnLCAnLW1hJywgJzUwMCcsICctaW1hZScsICc8aW5maWxlLm1hZT4nLCAnLW9tYWUnLCAnPG91dGZpbGUubWFlPic=

>  <s_epik_input>  (1) 
Tz1DKFtPSF0pW0NAQEhdKFtDSDJdW0NIMl0xKVtDSDJdW0NAXTEoQ2wpW0NIMl1PYzJbY0hdYyhDbCljKFtjSF1bY0hdMilbQ0gyXU9bQ0gyXVtDSDJdTj1P

>  <s_glide_docking_method>  (1) 
confgen

>  <s_i_glide_gridfile>  (1) 
gpcr_drd2_6luq_protein_autoprepared_prepared

>  <s_lp_Force_Field>  (1) 
S-OPLS

>  <s_lp_Variant>  (1) 
DiffSBDD_17-1

>  <s_m_source_file>  (1) 
generated_generic_title2_ligand_DiffSBDD_2026-06-23_prepared.sdf

>  <GenAI_Model>  (1) 
DiffSBDD

>  <Protein>  (1) 
generic_title2

$$$$
DiffSBDD_67
     RDKit          3D

  0  0  0  0  0  0  0  0  0  0999 V3000
M  V30 BEGIN CTAB
M  V30 COUNTS 67 69 0 0 1
M  V30 BEGIN ATOM
M  V30 1 C 5.483142 6.818515 -21.343187 0
M  V30 2 C 8.628411 5.636050 -19.535116 0
M  V30 3 C 4.360181 8.899028 -20.458439 0
M  V30 4 C 8.613688 4.998400 -15.667544 0
M  V30 5 F 3.716290 5.582550 -22.386596 0
M  V30 6 C 11.915840 5.773887 -17.296165 0
M  V30 7 C 15.774327 6.047274 -17.902797 0
M  V30 8 C 16.403887 8.095814 -19.264701 0
M  V30 9 C 13.410177 5.794461 -16.905191 0 CFG=2
M  V30 10 C 14.099188 7.926843 -18.228894 0
M  V30 11 C 6.714868 4.372551 -20.650164 0
M  V30 12 C 7.326493 5.600136 -20.285662 0
M  V30 13 C 14.917634 8.452777 -19.417378 0
M  V30 14 C 7.821512 3.405429 -17.248502 0
M  V30 15 C 5.498227 4.375869 -21.357315 0
M  V30 16 C 13.658464 6.467050 -15.540239 0
M  V30 17 C 4.883570 5.592041 -21.705097 0
M  V30 18 C 9.216887 3.883282 -17.700149 0 CFG=2
M  V30 19 C 7.324607 4.471954 -16.278887 0
M  V30 20 O 9.174670 6.681141 -19.185009 0
M  V30 21 C 6.702767 6.819973 -20.633041 0
M  V30 22 N 9.594589 4.992420 -16.772890 0 CFG=2 CHG=1
M  V30 23 F 3.571968 9.923121 -20.785001 0
M  V30 24 C 5.731693 8.994559 -22.618442 0
M  V30 25 C 11.005250 5.018336 -16.313869 0
M  V30 26 C 4.814970 8.140426 -21.718301 0
M  V30 27 C 14.277195 6.399876 -18.043708 0
M  V30 28 C 9.290069 4.284845 -19.197242 0
M  V30 29 F 5.103776 10.088969 -23.050171 0
M  V30 30 C 16.593459 6.581114 -19.089719 0
M  V30 31 H 3.775572 8.262528 -19.794162 0
M  V30 32 H 5.201639 9.293038 -19.888428 0
M  V30 33 H 8.493500 5.990270 -15.232277 0
M  V30 34 H 8.941612 4.322336 -14.876120 0
M  V30 35 H 11.833792 5.316679 -18.279731 0
M  V30 36 H 11.545429 6.790267 -17.406782 0
M  V30 37 H 16.179584 6.459836 -16.979339 0
M  V30 38 H 15.897722 4.966053 -17.837013 0
M  V30 39 H 16.960436 8.444913 -20.134741 0
M  V30 40 H 16.819586 8.619322 -18.402839 0
M  V30 41 H 13.710873 4.751095 -16.799722 0
M  V30 42 H 13.050731 8.177709 -18.384804 0
M  V30 43 H 14.411249 8.459509 -17.331078 0
M  V30 44 H 7.166097 3.431892 -20.393345 0
M  V30 45 H 14.529113 8.031602 -20.345180 0
M  V30 46 H 14.799940 9.534047 -19.499202 0
M  V30 47 H 7.124093 3.234928 -18.067628 0
M  V30 48 H 7.919307 2.458048 -16.716012 0
M  V30 49 H 5.034446 3.440523 -21.635283 0
M  V30 50 H 13.373252 7.519094 -15.542156 0
M  V30 51 H 13.096042 5.990271 -14.743141 0
M  V30 52 H 14.703988 6.390408 -15.247174 0
M  V30 53 H 9.902617 3.047519 -17.553569 0
M  V30 54 H 6.813475 5.267418 -16.824609 0
M  V30 55 H 6.635406 4.078653 -15.530066 0
M  V30 56 H 7.162165 7.758260 -20.355923 0
M  V30 57 H 6.632264 9.323392 -22.099262 0
M  V30 58 H 6.039443 8.440897 -23.506984 0
M  V30 59 H 11.027044 5.535266 -15.354893 0
M  V30 60 H 11.375025 4.011108 -16.127603 0
M  V30 61 H 3.917860 7.920056 -22.297098 0
M  V30 62 H 13.948171 5.931369 -18.972586 0
M  V30 63 H 8.990730 3.461437 -19.836207 0
M  V30 64 H 10.339251 4.408847 -19.459202 0
M  V30 65 H 16.291513 6.068334 -20.003889 0
M  V30 66 H 17.649878 6.353803 -18.945564 0
M  V30 67 H 9.436772 5.856570 -17.276243 0
M  V30 END ATOM
M  V30 BEGIN BOND
M  V30 1 1 9 6
M  V30 2 1 12 2
M  V30 3 1 12 11
M  V30 4 1 13 8
M  V30 5 1 13 10
M  V30 6 2 15 11
M  V30 7 1 16 9
M  V30 8 2 17 1
M  V30 9 1 17 5
M  V30 10 1 17 15
M  V30 11 1 18 14
M  V30 12 1 19 4
M  V30 13 1 19 14
M  V30 14 2 20 2
M  V30 15 1 21 1
M  V30 16 2 21 12
M  V30 17 1 22 4
M  V30 18 1 22 18
M  V30 19 1 23 3
M  V30 20 1 25 6
M  V30 21 1 25 22
M  V30 22 1 26 1
M  V30 23 1 26 3
M  V30 24 1 26 24
M  V30 25 1 27 7
M  V30 26 1 27 9
M  V30 27 1 27 10
M  V30 28 1 28 2
M  V30 29 1 28 18
M  V30 30 1 29 24
M  V30 31 1 30 7
M  V30 32 1 30 8
M  V30 33 1 31 3
M  V30 34 1 32 3
M  V30 35 1 33 4
M  V30 36 1 34 4
M  V30 37 1 35 6
M  V30 38 1 36 6
M  V30 39 1 37 7
M  V30 40 1 38 7
M  V30 41 1 39 8
M  V30 42 1 40 8
M  V30 43 1 9 41 CFG=1
M  V30 44 1 42 10
M  V30 45 1 43 10
M  V30 46 1 44 11
M  V30 47 1 45 13
M  V30 48 1 46 13
M  V30 49 1 47 14
M  V30 50 1 48 14
M  V30 51 1 49 15
M  V30 52 1 50 16
M  V30 53 1 51 16
M  V30 54 1 52 16
M  V30 55 1 18 53 CFG=3
M  V30 56 1 54 19
M  V30 57 1 55 19
M  V30 58 1 56 21
M  V30 59 1 57 24
M  V30 60 1 58 24
M  V30 61 1 59 25
M  V30 62 1 60 25
M  V30 63 1 61 26
M  V30 64 1 62 27
M  V30 65 1 63 28
M  V30 66 1 64 28
M  V30 67 1 65 30
M  V30 68 1 66 30
M  V30 69 1 22 67 CFG=3
M  V30 END BOND
M  V30 END CTAB
M  END
>  <i_epik_Tot_Q>  (1) 
1

>  <i_epik_Tot_abs_Q>  (1) 
1

>  <i_i_glide_confnum>  (1) 
176

>  <i_i_glide_lignum>  (1) 
110

>  <i_i_glide_posenum>  (1) 
238

>  <i_i_glide_rotatable_bonds>  (1) 
10

>  <i_lp_mmshare_version>  (1) 
72125

>  <i_m_source_file_index>  (1) 
68

>  <i_f3d_flags>  (1) 
0

>  <num_sample>  (1) 
100

>  <b_lp_Chiralities_Consistent>  (1) 
1

>  <r_epik_Charging_Adjusted_Penalty>  (1) 
0.0091991127420811905

>  <r_epik_Ionization_Penalty>  (1) 
0.0045995563710408641

>  <r_epik_Ionization_Penalty_Charging>  (1) 
0.0045995563710406013

>  <r_epik_Ionization_Penalty_Neutral>  (1) 
2.6311653613664267e-16

>  <r_epik_State_Penalty>  (1) 
0.0045995563710405883

>  <r_glide_ring_energy>  (1) 
0

>  <r_i_docking_score>  (1) 
-3.3503701885357131

>  <r_i_glide_ecoul>  (1) 
-4.0965945852917995

>  <r_i_glide_eff_state_penalty>  (1) 
0.0045995563710405883

>  <r_i_glide_einternal>  (1) 
5.2983581537308737

>  <r_i_glide_emodel>  (1) 
-31.005370565240327

>  <r_i_glide_emodel_strain>  (1) 
0

>  <r_i_glide_energy>  (1) 
-28.04446117535808

>  <r_i_glide_erotb>  (1) 
0.77002039440311598

>  <r_i_glide_esite>  (1) 
-0.021851141115950653

>  <r_i_glide_evdw>  (1) 
-23.94786659006628

>  <r_i_glide_gscore>  (1) 
-3.3549697449067537

>  <r_i_glide_gscore_strain>  (1) 
0

>  <r_i_glide_hbond>  (1) 
0

>  <r_i_glide_ligand_efficiency>  (1) 
-0.11167900628452378

>  <r_i_glide_ligand_efficiency_ln>  (1) 
-0.76124061204235571

>  <r_i_glide_ligand_efficiency_sa>  (1) 
-0.34701263855989761

>  <r_i_glide_lipo>  (1) 
-1.4325120123521113

>  <r_i_glide_metal>  (1) 
-0

>  <r_i_glide_rewards>  (1) 
-0.85874446854472364

>  <r_lp_Energy>  (1) 
29.482433999999998

>  <r_lp_tautomer_probability>  (1) 
0.99990000499974985

>  <s_epik_cmdline>  (1) 
J2VwaWtfcHl0aG9uJywgJy1waHQnLCAnMS4wJywgJy1waCcsICc3LjQnLCAnLXRuJywgJzgnLCAnLW1hJywgJzUwMCcsICctaW1hZScsICc8aW5maWxlLm1hZT4nLCAnLW9tYWUnLCAnPG91dGZpbGUubWFlPic=

>  <s_epik_input>  (1) 
RltDSDJdW0NIXShbQ0gyXUYpYzFjKEYpW2NIXVtjSF1jKFtjSF0xKUMoPU8pW0NIMl1bQ0BASF0yW0NIMl1bQ0gyXVtDSDJdTjJbQ0gyXVtDSDJdW0NASF0oW0NIM10pW0NIXTNbQ0gyXVtDSDJdW0NIMl1bQ0gyXVtDSDJdMw==

>  <s_glide_docking_method>  (1) 
confgen

>  <s_i_glide_gridfile>  (1) 
gpcr_drd2_6luq_protein_autoprepared_prepared

>  <s_lp_Force_Field>  (1) 
S-OPLS

>  <s_lp_Variant>  (1) 
DiffSBDD_67-2

>  <s_m_source_file>  (1) 
generated_generic_title2_ligand_DiffSBDD_2026-06-23_prepared.sdf

>  <GenAI_Model>  (1) 
DiffSBDD

>  <Protein>  (1) 
generic_title2

$$$$
DiffSBDD_95
     RDKit          3D

  0  0  0  0  0  0  0  0  0  0999 V3000
M  V30 BEGIN CTAB
M  V30 COUNTS 66 71 0 0 1
M  V30 BEGIN ATOM
M  V30 1 C 11.585099 0.390102 -18.535670 0
M  V30 2 C 14.843710 0.531752 -17.686553 0
M  V30 3 C 15.387112 -0.017899 -19.035229 0
M  V30 4 C 12.466215 1.172729 -19.495835 0 CFG=1
M  V30 5 C 14.174206 7.769048 -17.819538 0
M  V30 6 O 16.921106 4.861211 -16.958598 0
M  V30 7 N 15.730374 6.283678 -18.198512 0
M  V30 8 C 13.247190 6.756036 -15.697936 0
M  V30 9 C 13.562245 2.148934 -19.130359 0 CFG=2
M  V30 10 N 12.347741 6.110240 -19.381670 0 CHG=1
M  V30 11 C 17.852941 3.722226 -21.064068 0
M  V30 12 C 12.209333 6.132071 -17.909991 0
M  V30 13 S 13.160111 0.187973 -20.847220 0
M  V30 14 C 17.784584 5.293678 -19.195653 0
M  V30 15 C 11.167407 5.579682 -20.089923 0
M  V30 16 C 14.131505 1.901179 -17.753834 0
M  V30 17 C 12.231518 2.660747 -19.633649 0 CFG=1
M  V30 18 C 12.108197 3.276057 -21.021237 0 CFG=1
M  V30 19 C 19.041100 5.805335 -19.582884 0
M  V30 20 C 10.748571 3.506561 -21.637210 0
M  V30 21 C 17.077323 5.858589 -17.976370 0 CFG=2
M  V30 22 C 15.341159 7.543670 -18.311277 0
M  V30 23 N 15.574783 5.034136 -16.377926 0
M  V30 24 C 14.751713 5.493959 -17.487117 0 CFG=1
M  V30 25 C 13.507414 6.556132 -17.195533 0 CFG=1
M  V30 26 C 14.375610 -0.809668 -19.905665 0
M  V30 27 C 17.190813 4.251220 -19.939570 0
M  V30 28 C 11.598800 4.689964 -21.237160 0 CFG=1
M  V30 29 C 19.108388 4.232881 -21.447451 0
M  V30 30 C 19.702247 5.274026 -20.707313 0
M  V30 31 H 11.228059 1.027402 -17.726256 0
M  V30 32 H 10.718849 -0.005696 -19.065846 0
M  V30 33 H 12.122916 -0.444227 -18.092854 0
M  V30 34 H 15.671813 0.625125 -16.983840 0
M  V30 35 H 14.186545 -0.210704 -17.235174 0
M  V30 36 H 15.894550 0.752565 -19.616038 0
M  V30 37 H 16.174915 -0.726909 -18.785040 0
M  V30 38 H 13.697134 8.739252 -17.809012 0
M  V30 39 H 12.811186 5.866553 -15.244735 0
M  V30 40 H 14.175383 6.965020 -15.176589 0
M  V30 41 H 12.574911 7.590184 -15.513581 0
M  V30 42 H 14.349800 2.346096 -19.855906 0
M  V30 43 H 12.551152 7.043548 -19.712809 0
M  V30 44 H 17.398716 2.923345 -21.632082 0
M  V30 45 H 11.928140 5.137927 -17.558654 0
M  V30 46 H 11.385252 6.790237 -17.643478 0
M  V30 47 H 10.518871 5.017018 -19.417321 0
M  V30 48 H 10.570575 6.408043 -20.473485 0
M  V30 49 H 14.871503 2.668472 -17.547525 0
M  V30 50 H 13.360336 1.985665 -16.987002 0
M  V30 51 H 11.584913 3.089300 -18.872406 0
M  V30 52 H 12.877334 2.962741 -21.725449 0
M  V30 53 H 19.499492 6.601973 -19.014988 0
M  V30 54 H 9.875842 3.273483 -21.029925 0
M  V30 55 H 10.641075 3.295724 -22.699213 0
M  V30 56 H 17.650957 6.688174 -17.559336 0
M  V30 57 H 16.020863 8.248059 -18.769713 0
M  V30 58 H 15.282703 4.116103 -16.074007 0
M  V30 59 H 14.441183 4.669580 -18.124086 0
M  V30 60 H 14.929904 -1.398553 -20.636934 0
M  V30 61 H 13.847063 -1.532965 -19.286168 0
M  V30 62 H 16.230601 3.856690 -19.644986 0
M  V30 63 H 12.073869 5.233966 -22.052139 0
M  V30 64 H 19.616116 3.825677 -22.309540 0
M  V30 65 H 20.665967 5.664330 -21.001705 0
M  V30 66 H 13.133854 5.519282 -19.610963 0
M  V30 END ATOM
M  V30 BEGIN BOND
M  V30 1 1 3 2
M  V30 2 1 4 1 CFG=1
M  V30 3 1 9 4
M  V30 4 1 12 10
M  V30 5 1 13 4
M  V30 6 1 15 10
M  V30 7 1 16 2
M  V30 8 1 16 9
M  V30 9 1 17 4
M  V30 10 1 17 9
M  V30 11 1 18 17
M  V30 12 1 19 14
M  V30 13 1 20 18
M  V30 14 1 21 6
M  V30 15 1 21 7
M  V30 16 1 21 14
M  V30 17 2 22 5
M  V30 18 1 22 7
M  V30 19 1 23 6
M  V30 20 1 24 7
M  V30 21 1 24 23
M  V30 22 1 25 5
M  V30 23 1 25 8 CFG=1
M  V30 24 1 25 12
M  V30 25 1 25 24
M  V30 26 1 26 3
M  V30 27 1 26 13
M  V30 28 1 27 11
M  V30 29 2 27 14
M  V30 30 1 28 15
M  V30 31 1 28 18
M  V30 32 1 28 20
M  V30 33 2 29 11
M  V30 34 2 30 19
M  V30 35 1 30 29
M  V30 36 1 31 1
M  V30 37 1 32 1
M  V30 38 1 33 1
M  V30 39 1 34 2
M  V30 40 1 35 2
M  V30 41 1 36 3
M  V30 42 1 37 3
M  V30 43 1 38 5
M  V30 44 1 39 8
M  V30 45 1 40 8
M  V30 46 1 41 8
M  V30 47 1 9 42 CFG=3
M  V30 48 1 43 10
M  V30 49 1 44 11
M  V30 50 1 45 12
M  V30 51 1 46 12
M  V30 52 1 47 15
M  V30 53 1 48 15
M  V30 54 1 49 16
M  V30 55 1 50 16
M  V30 56 1 17 51 CFG=1
M  V30 57 1 18 52 CFG=3
M  V30 58 1 53 19
M  V30 59 1 54 20
M  V30 60 1 55 20
M  V30 61 1 21 56 CFG=1
M  V30 62 1 57 22
M  V30 63 1 58 23
M  V30 64 1 24 59 CFG=3
M  V30 65 1 60 26
M  V30 66 1 61 26
M  V30 67 1 62 27
M  V30 68 1 28 63 CFG=3
M  V30 69 1 64 29
M  V30 70 1 65 30
M  V30 71 1 66 10
M  V30 END BOND
M  V30 END CTAB
M  END
>  <i_epik_Tot_Q>  (1) 
1

>  <i_epik_Tot_abs_Q>  (1) 
1

>  <i_i_glide_confnum>  (1) 
160

>  <i_i_glide_lignum>  (1) 
183

>  <i_i_glide_posenum>  (1) 
182

>  <i_i_glide_rotatable_bonds>  (1) 
6

>  <i_lp_mmshare_version>  (1) 
72125

>  <i_m_source_file_index>  (1) 
96

>  <i_f3d_flags>  (1) 
0

>  <num_sample>  (1) 
100

>  <b_lp_Chiralities_Consistent>  (1) 
1

>  <r_epik_Charging_Adjusted_Penalty>  (1) 
0.0020531937962160901

>  <r_epik_Ionization_Penalty>  (1) 
0.0020536898614070998

>  <r_epik_Ionization_Penalty_Charging>  (1) 
0.0020531937962160901

>  <r_epik_Ionization_Penalty_Neutral>  (1) 
4.9606519100973171e-07

>  <r_epik_State_Penalty>  (1) 
-0

>  <r_glide_ring_energy>  (1) 
0

>  <r_i_docking_score>  (1) 
-3.3485492555934404

>  <r_i_glide_ecoul>  (1) 
-4.7144764337710008

>  <r_i_glide_eff_state_penalty>  (1) 
-0

>  <r_i_glide_einternal>  (1) 
2.3070042582883765

>  <r_i_glide_emodel>  (1) 
-38.809860618367352

>  <r_i_glide_emodel_strain>  (1) 
0.34336049943649982

>  <r_i_glide_energy>  (1) 
-33.14022733453352

>  <r_i_glide_erotb>  (1) 
0.65422182105081872

>  <r_i_glide_esite>  (1) 
-0.052911898351691612

>  <r_i_glide_evdw>  (1) 
-28.425750900762523

>  <r_i_glide_gscore>  (1) 
-3.3485492555934404

>  <r_i_glide_gscore_strain>  (1) 
0

>  <r_i_glide_hbond>  (1) 
0

>  <r_i_glide_ligand_efficiency>  (1) 
-0.11161830851978134

>  <r_i_glide_ligand_efficiency_ln>  (1) 
-0.7608268762372179

>  <r_i_glide_ligand_efficiency_sa>  (1) 
-0.34682403649225119

>  <r_i_glide_lipo>  (1) 
-1.2306468269252608

>  <r_i_glide_metal>  (1) 
-0

>  <r_i_glide_rewards>  (1) 
-0.59075334126353019

>  <r_lp_Energy>  (1) 
45.618919999999996

>  <r_lp_tautomer_probability>  (1) 
1

>  <s_epik_Chemistry_Notes>  (1) 
This compound has an imine and may undergo hydrolysis. This compound contains an acetal/aminal-like group ( X-CH(R)-Y where X, Y are N, S, or O) that may be acid/base labile, releasing an aldehyde. This compound has a N-S or N-O group and may undergo hydrolysis at high or low pH.

>  <s_epik_cmdline>  (1) 
J2VwaWtfcHl0aG9uJywgJy1waHQnLCAnMS4wJywgJy1waCcsICc3LjQnLCAnLXRuJywgJzgnLCAnLW1hJywgJzUwMCcsICctaW1hZScsICc8aW5maWxlLm1hZT4nLCAnLW9tYWUnLCAnPG91dGZpbGUubWFlPic=

>  <s_epik_input>  (1) 
UzFbQ0gyXVtDSDJdW0NIMl1bQ0gyXVtDQEBIXShbQ0BdMTJbQ0gzXSlbQ0BIXTJbQ0BIXTNbQ0gyXVtDQEhdM1tDSDJdW05IXVtDSDJdW0NAXShbQ0gzXSkoW0NIXT1bQ0hdNClbQ0BASF0oTjQ1KVtOSF1PW0NASF01YzZbY0hdW2NIXVtjSF1bY0hdW2NIXTY=

>  <s_glide_docking_method>  (1) 
confgen

>  <s_i_glide_gridfile>  (1) 
gpcr_drd2_6luq_protein_autoprepared_prepared

>  <s_lp_Force_Field>  (1) 
S-OPLS

>  <s_lp_Variant>  (1) 
DiffSBDD_95-1

>  <s_m_source_file>  (1) 
generated_generic_title2_ligand_DiffSBDD_2026-06-23_prepared.sdf

>  <GenAI_Model>  (1) 
DiffSBDD

>  <Protein>  (1) 
generic_title2

$$$$
DiffSBDD_61
     RDKit          3D

  0  0  0  0  0  0  0  0  0  0999 V3000
M  V30 BEGIN CTAB
M  V30 COUNTS 46 47 0 0 1
M  V30 BEGIN ATOM
M  V30 1 C 7.541025 4.790277 -10.751508 0
M  V30 2 O 8.069654 3.428498 -15.188449 0 CHG=-1
M  V30 3 C 14.528209 0.735346 -17.955053 0
M  V30 4 O 8.776833 5.090772 -13.364631 0
M  V30 5 N 8.975410 6.390218 -9.523189 0 CFG=2 CHG=1
M  V30 6 O 13.927049 -0.356463 -17.985027 0 CHG=-1
M  V30 7 C 9.612069 2.527978 -17.831111 0
M  V30 8 C 8.929191 5.459093 -10.680465 0 CFG=2
M  V30 9 P 9.240058 6.350248 -12.308026 0
M  V30 10 F 12.749578 4.380056 -17.326294 0
M  V30 11 C 9.783187 6.622336 -7.242107 0
M  V30 12 N 13.844395 1.904409 -17.877045 0
M  V30 13 O 7.385032 5.869875 -15.417888 0
M  V30 14 O 8.293613 7.484263 -12.385028 0 CHG=-1
M  V30 15 C 11.495828 1.007886 -18.148875 0
M  V30 16 O 9.835700 5.190226 -15.845990 0
M  V30 17 F 11.233174 8.448723 -7.709293 0
M  V30 18 P 8.392291 4.862686 -15.010845 0
M  V30 19 C 12.402406 2.074297 -17.870699 0
M  V30 20 C 11.894172 3.359859 -17.585025 0
M  V30 21 C 10.072548 7.380360 -9.495017 0
M  V30 22 C 8.975378 5.727593 -8.194939 0
M  V30 23 C 10.078215 7.879811 -8.055056 0 CFG=1
M  V30 24 C 10.502146 3.585584 -17.560921 0
M  V30 25 O 15.775409 0.790226 -17.985050 0
M  V30 26 C 9.962090 4.967774 -17.235965 0
M  V30 27 C 10.107659 1.244944 -18.125920 0
M  V30 28 O 10.697098 6.608673 -12.385027 0
M  V30 29 H 7.268402 4.310320 -9.812162 0
M  V30 30 H 6.766460 5.525526 -10.975642 0
M  V30 31 H 7.502342 4.021466 -11.523074 0
M  V30 32 H 8.545481 2.701910 -17.809890 0
M  V30 33 H 9.695536 4.692939 -10.556613 0
M  V30 34 H 9.242588 6.844338 -6.321217 0
M  V30 35 H 10.713005 6.121145 -6.969035 0
M  V30 36 H 14.390335 2.747764 -17.801973 0
M  V30 37 H 11.842808 0.024254 -18.384134 0
M  V30 38 H 11.018751 6.890571 -9.727282 0
M  V30 39 H 9.917907 8.195225 -10.203466 0
M  V30 40 H 7.949685 5.590309 -7.850158 0
M  V30 41 H 9.434490 4.740058 -8.249656 0
M  V30 42 H 9.285014 8.616797 -7.913498 0
M  V30 43 H 10.627133 5.726236 -17.650936 0
M  V30 44 H 9.002826 5.113025 -17.734097 0
M  V30 45 H 9.421088 0.438386 -18.334894 0
M  V30 46 H 8.110489 6.956325 -9.585024 0
M  V30 END ATOM
M  V30 BEGIN BOND
M  V30 1 1 6 3
M  V30 2 1 8 1
M  V30 3 1 8 5
M  V30 4 1 9 4
M  V30 5 1 9 8
M  V30 6 1 12 3
M  V30 7 1 14 9
M  V30 8 1 18 2
M  V30 9 1 18 4
M  V30 10 2 18 13
M  V30 11 1 18 16
M  V30 12 1 19 12
M  V30 13 2 19 15
M  V30 14 1 20 10
M  V30 15 1 20 19
M  V30 16 1 21 5
M  V30 17 1 22 5
M  V30 18 1 22 11
M  V30 19 1 23 11
M  V30 20 1 23 17
M  V30 21 1 23 21
M  V30 22 1 24 7
M  V30 23 2 24 20
M  V30 24 2 25 3
M  V30 25 1 26 16
M  V30 26 1 26 24
M  V30 27 2 27 7
M  V30 28 1 27 15
M  V30 29 2 28 9
M  V30 30 1 29 1
M  V30 31 1 30 1
M  V30 32 1 31 1
M  V30 33 1 32 7
M  V30 34 1 8 33 CFG=1
M  V30 35 1 34 11
M  V30 36 1 35 11
M  V30 37 1 36 12
M  V30 38 1 37 15
M  V30 39 1 38 21
M  V30 40 1 39 21
M  V30 41 1 40 22
M  V30 42 1 41 22
M  V30 43 1 23 42 CFG=3
M  V30 44 1 43 26
M  V30 45 1 44 26
M  V30 46 1 45 27
M  V30 47 1 5 46 CFG=1
M  V30 END BOND
M  V30 END CTAB
M  END
>  <i_epik_Tot_Q>  (1) 
-2

>  <i_epik_Tot_abs_Q>  (1) 
4

>  <i_i_glide_confnum>  (1) 
75

>  <i_i_glide_lignum>  (1) 
96

>  <i_i_glide_posenum>  (1) 
27

>  <i_i_glide_rotatable_bonds>  (1) 
9

>  <i_lp_mmshare_version>  (1) 
72125

>  <i_m_source_file_index>  (1) 
62

>  <i_f3d_flags>  (1) 
0

>  <num_sample>  (1) 
100

>  <b_lp_Chiralities_Consistent>  (1) 
1

>  <r_epik_Charging_Adjusted_Penalty>  (1) 
0.22521151081801519

>  <r_epik_Ionization_Penalty>  (1) 
0.079461215956128484

>  <r_epik_Ionization_Penalty_Charging>  (1) 
0.079461215147622277

>  <r_epik_Ionization_Penalty_Neutral>  (1) 
8.0850620194651714e-10

>  <r_epik_State_Penalty>  (1) 
0.14575029567039291

>  <r_glide_ring_energy>  (1) 
0

>  <r_i_docking_score>  (1) 
-3.3449575351327154

>  <r_i_glide_ecoul>  (1) 
-7.2050671154926604

>  <r_i_glide_eff_state_penalty>  (1) 
0.14575029567039291

>  <r_i_glide_einternal>  (1) 
5.7720693233866429

>  <r_i_glide_emodel>  (1) 
-46.453775658163821

>  <r_i_glide_emodel_strain>  (1) 
0.10341850188528667

>  <r_i_glide_energy>  (1) 
-38.799155988162283

>  <r_i_glide_erotb>  (1) 
0.71514179105455389

>  <r_i_glide_esite>  (1) 
-0.10000000000000001

>  <r_i_glide_evdw>  (1) 
-31.594088872669623

>  <r_i_glide_gscore>  (1) 
-3.4907078308031085

>  <r_i_glide_gscore_strain>  (1) 
0

>  <r_i_glide_hbond>  (1) 
-0.31778388095159921

>  <r_i_glide_ligand_efficiency>  (1) 
-0.11946276911188269

>  <r_i_glide_ligand_efficiency_ln>  (1) 
-0.7721144113294498

>  <r_i_glide_ligand_efficiency_sa>  (1) 
-0.36275932723487159

>  <r_i_glide_lipo>  (1) 
-0.44695404783273246

>  <r_i_glide_metal>  (1) 
-0

>  <r_i_glide_rewards>  (1) 
-0.68064718211595121

>  <r_lp_Energy>  (1) 
8.1711899999999993

>  <s_epik_cmdline>  (1) 
J2VwaWtfcHl0aG9uJywgJy1waHQnLCAnMS4wJywgJy1waCcsICc3LjQnLCAnLXRuJywgJzgnLCAnLW1hJywgJzUwMCcsICctaW1hZScsICc8aW5maWxlLm1hZT4nLCAnLW9tYWUnLCAnPG91dGZpbGUubWFlPic=

>  <s_epik_input>  (1) 
W0NIMl0xW0NIMl1bQ0BASF0oRilbQ0gyXU4xW0NAQEhdKFtDSDNdKVtQQF0oPU8pKFtPSF0pT1tQQEBdKD1PKShbT0hdKU9bQ0gyXWMoYzJGKVtjSF1bY0hdW2NIXWMyW05IXUMoPU8pW09IXQ==

>  <s_glide_docking_method>  (1) 
confgen

>  <s_i_glide_gridfile>  (1) 
gpcr_drd2_6luq_protein_autoprepared_prepared

>  <s_lp_Force_Field>  (1) 
S-OPLS

>  <s_lp_Variant>  (1) 
DiffSBDD_61-1

>  <s_m_source_file>  (1) 
generated_generic_title2_ligand_DiffSBDD_2026-06-23_prepared.sdf

>  <GenAI_Model>  (1) 
DiffSBDD

>  <Protein>  (1) 
generic_title2

$$$$
DiffSBDD_32
     RDKit          3D

  0  0  0  0  0  0  0  0  0  0999 V3000
M  V30 BEGIN CTAB
M  V30 COUNTS 76 79 0 0 1
M  V30 BEGIN ATOM
M  V30 1 O 7.737593 6.643104 -19.352896 0
M  V30 2 C 13.535014 5.216542 -16.774662 0 CFG=1
M  V30 3 F 6.048895 8.428142 -24.017280 0
M  V30 4 O 7.517158 2.797238 -17.837933 0
M  V30 5 O 9.628715 1.434650 -18.851781 0
M  V30 6 C 13.630809 3.765323 -18.948107 0
M  V30 7 C 5.333944 4.612334 -21.607343 0
M  V30 8 C 5.375460 5.614378 -18.782989 0 CFG=1
M  V30 9 O 6.588344 6.685380 -21.930447 0
M  V30 10 O 4.706881 7.697277 -21.095263 0
M  V30 11 C 7.515861 3.773712 -18.859084 0 CFG=2
M  V30 12 C 11.958500 1.759337 -18.974994 0
M  V30 13 C 13.746073 3.816195 -17.404904 0
M  V30 14 O 8.931026 5.816849 -18.809152 0
M  V30 15 S 4.767727 6.973677 -17.740726 0
M  V30 16 C 13.219232 2.421112 -19.550286 0
M  V30 17 C 2.678618 9.254402 -22.961196 0
M  V30 18 C 14.669286 6.195821 -17.160755 0
M  V30 19 C 6.594117 5.834000 -19.631856 0 CFG=2
M  V30 20 C 3.705049 10.362075 -22.891085 0 CFG=2
M  V30 21 O 1.725167 9.543477 -23.955592 0
M  V30 22 C 13.932237 1.843532 -20.532488 0
M  V30 23 F 6.975311 11.584991 -21.987000 0
M  V30 24 C 10.873537 5.196601 -16.504474 0
M  V30 25 O 5.929510 11.347667 -22.960908 0
M  V30 26 C 5.195470 10.160510 -22.738943 0 CFG=2
M  V30 27 C 10.221387 3.782203 -18.654528 0 CFG=1
M  V30 28 C 8.908810 4.425050 -19.198775 0 CFG=1
M  V30 29 C 6.031558 8.871603 -22.763646 0 CFG=1
M  V30 30 C 16.068515 5.777244 -16.683132 0
M  V30 31 N 4.353631 10.390222 -21.585139 0
M  V30 32 C 6.642295 4.906717 -18.403134 0 CFG=1
M  V30 33 C 12.151897 5.867140 -17.070924 0
M  V30 34 C 5.693437 7.692597 -21.835754 0
M  V30 35 C 6.512165 5.500592 -21.140536 0 CFG=1
M  V30 36 C 10.388679 3.855115 -17.110769 0
M  V30 37 C 10.569133 2.395040 -19.283239 0 CFG=2
M  V30 38 H 13.589507 5.086854 -15.692544 0
M  V30 39 H 6.624235 2.538214 -17.659049 0
M  V30 40 H 8.889649 1.890095 -18.451685 0
M  V30 41 H 12.983121 4.536552 -19.345118 0
M  V30 42 H 14.605864 4.037010 -19.354430 0
M  V30 43 H 5.303770 3.661022 -21.077371 0
M  V30 44 H 4.366765 5.096140 -21.472019 0
M  V30 45 H 5.430042 4.383427 -22.668920 0
M  V30 46 H 4.576015 5.004753 -19.185032 0
M  V30 47 H 7.100190 3.287206 -19.740185 0
M  V30 48 H 11.934887 0.756530 -19.405343 0
M  V30 49 H 12.084156 1.555328 -17.914896 0
M  V30 50 H 14.720500 3.421488 -17.121545 0
M  V30 51 H 13.075459 3.127340 -16.913888 0
M  V30 52 H 4.359457 7.776071 -18.728802 0
M  V30 53 H 2.175425 9.190224 -21.999835 0
M  V30 54 H 3.150026 8.296123 -23.177999 0
M  V30 55 H 14.683219 6.345328 -18.240912 0
M  V30 56 H 14.454337 7.175180 -16.732314 0
M  V30 57 H 3.343900 11.359979 -23.133378 0
M  V30 58 H 1.063585 8.867906 -23.948284 0
M  V30 59 H 13.637050 0.892516 -20.950912 0
M  V30 60 H 14.819213 2.315818 -20.928980 0
M  V30 61 H 10.062190 5.917562 -16.598565 0
M  V30 62 H 10.986751 5.067621 -15.428981 0
M  V30 63 H 10.969150 4.437933 -19.072820 0
M  V30 64 H 9.023522 4.425569 -20.280856 0
M  V30 65 H 7.063741 9.145561 -22.543301 0
M  V30 66 H 16.795600 6.562537 -16.890374 0
M  V30 67 H 16.079506 5.590300 -15.608753 0
M  V30 68 H 16.418769 4.878996 -17.189922 0
M  V30 69 H 4.212063 9.498734 -21.111077 0
M  V30 70 H 6.994240 5.295769 -17.446555 0
M  V30 71 H 12.036230 6.080965 -18.131103 0
M  V30 72 H 12.173155 6.859450 -16.618223 0
M  V30 73 H 7.412399 4.955528 -21.407900 0
M  V30 74 H 9.453969 3.608146 -16.615724 0
M  V30 75 H 11.040589 3.059735 -16.784967 0
M  V30 76 H 10.469814 2.474880 -20.366638 0
M  V30 END ATOM
M  V30 BEGIN BOND
M  V30 1 1 11 4
M  V30 2 1 13 2
M  V30 3 1 13 6
M  V30 4 1 14 1
M  V30 5 1 15 8
M  V30 6 1 16 6
M  V30 7 1 16 12
M  V30 8 1 18 2
M  V30 9 1 19 1 CFG=3
M  V30 10 1 19 8
M  V30 11 1 20 17
M  V30 12 1 21 17
M  V30 13 2 22 16
M  V30 14 1 25 23
M  V30 15 1 26 20
M  V30 16 1 26 25 CFG=3
M  V30 17 1 28 11
M  V30 18 1 28 14
M  V30 19 1 28 27
M  V30 20 1 29 3
M  V30 21 1 29 26
M  V30 22 1 30 18
M  V30 23 1 31 20
M  V30 24 1 31 26
M  V30 25 1 32 8
M  V30 26 1 32 11
M  V30 27 1 32 19
M  V30 28 1 33 2
M  V30 29 1 33 24
M  V30 30 1 34 9
M  V30 31 2 34 10
M  V30 32 1 34 29
M  V30 33 1 35 7
M  V30 34 1 35 9
M  V30 35 1 35 19
M  V30 36 1 36 24
M  V30 37 1 36 27
M  V30 38 1 37 5
M  V30 39 1 37 12
M  V30 40 1 37 27
M  V30 41 1 2 38 CFG=1
M  V30 42 1 39 4
M  V30 43 1 40 5
M  V30 44 1 41 6
M  V30 45 1 42 6
M  V30 46 1 43 7
M  V30 47 1 44 7
M  V30 48 1 45 7
M  V30 49 1 8 46 CFG=3
M  V30 50 1 11 47 CFG=3
M  V30 51 1 48 12
M  V30 52 1 49 12
M  V30 53 1 50 13
M  V30 54 1 51 13
M  V30 55 1 52 15
M  V30 56 1 53 17
M  V30 57 1 54 17
M  V30 58 1 55 18
M  V30 59 1 56 18
M  V30 60 1 20 57 CFG=3
M  V30 61 1 58 21
M  V30 62 1 59 22
M  V30 63 1 60 22
M  V30 64 1 61 24
M  V30 65 1 62 24
M  V30 66 1 27 63 CFG=3
M  V30 67 1 28 64 CFG=3
M  V30 68 1 29 65 CFG=1
M  V30 69 1 66 30
M  V30 70 1 67 30
M  V30 71 1 68 30
M  V30 72 1 69 31
M  V30 73 1 32 70 CFG=1
M  V30 74 1 71 33
M  V30 75 1 72 33
M  V30 76 1 35 73 CFG=3
M  V30 77 1 74 36
M  V30 78 1 75 36
M  V30 79 1 37 76 CFG=3
M  V30 END BOND
M  V30 END CTAB
M  END
>  <i_epik_Tot_Q>  (1) 
0

>  <i_epik_Tot_abs_Q>  (1) 
0

>  <i_i_glide_confnum>  (1) 
102

>  <i_i_glide_lignum>  (1) 
54

>  <i_i_glide_posenum>  (1) 
62

>  <i_i_glide_rotatable_bonds>  (1) 
13

>  <i_lp_mmshare_version>  (1) 
72125

>  <i_m_source_file_index>  (1) 
33

>  <i_f3d_flags>  (1) 
0

>  <num_sample>  (1) 
100

>  <b_lp_Chiralities_Consistent>  (1) 
1

>  <r_epik_Charging_Adjusted_Penalty>  (1) 
0.093290770244600377

>  <r_epik_Ionization_Penalty>  (1) 
0.093291904882598309

>  <r_epik_Ionization_Penalty_Charging>  (1) 
0

>  <r_epik_Ionization_Penalty_Neutral>  (1) 
0.093291904882598309

>  <r_epik_State_Penalty>  (1) 
0.093290770244600377

>  <r_glide_ring_energy>  (1) 
0

>  <r_i_docking_score>  (1) 
-3.3307801980518468

>  <r_i_glide_ecoul>  (1) 
-2.2096238566529349

>  <r_i_glide_eff_state_penalty>  (1) 
0.093290770244600377

>  <r_i_glide_einternal>  (1) 
5.1709019754451369

>  <r_i_glide_emodel>  (1) 
-32.549327298789208

>  <r_i_glide_emodel_strain>  (1) 
0.6314179156537989

>  <r_i_glide_energy>  (1) 
-30.197157349511595

>  <r_i_glide_erotb>  (1) 
0.4066656280010113

>  <r_i_glide_esite>  (1) 
-0.060293071646477736

>  <r_i_glide_evdw>  (1) 
-27.98753349285866

>  <r_i_glide_gscore>  (1) 
-3.424070968296447

>  <r_i_glide_gscore_strain>  (1) 
0

>  <r_i_glide_hbond>  (1) 
-0.31905977627124543

>  <r_i_glide_ligand_efficiency>  (1) 
-0.090021086433833691

>  <r_i_glide_ligand_efficiency_ln>  (1) 
-0.72236814039088881

>  <r_i_glide_ligand_efficiency_sa>  (1) 
-0.29997023132372974

>  <r_i_glide_lipo>  (1) 
-1.1706282549847635

>  <r_i_glide_metal>  (1) 
-0

>  <r_i_glide_rewards>  (1) 
-0.54993524025409823

>  <r_lp_Energy>  (1) 
49.816001

>  <s_epik_Chemistry_Notes>  (1) 
This compound has an ester and may undergo hydrolysis at high or low pH.

>  <s_epik_cmdline>  (1) 
J2VwaWtfcHl0aG9uJywgJy1waHQnLCAnMS4wJywgJy1waCcsICc3LjQnLCAnLXRuJywgJzgnLCAnLW1hJywgJzUwMCcsICctaW1hZScsICc8aW5maWxlLm1hZT4nLCAnLW9tYWUnLCAnPG91dGZpbGUubWFlPic=

>  <s_epik_input>  (1) 
W0NIM11bQ0gyXVtDQEBIXTFbQ0gyXVtDSDJdQyg9W0NIMl0pW0NIMl1bQ0BASF0oW09IXSlbQ0BIXShbQ0gyXVtDSDJdW0NIMl0xKVtDQEhdKE9PMilbQ0BIXShbT0hdKVtDQEhdKFtDQEhdM1tTSF0pW0NAXTIzW0NAQEhdKFtDSDNdKU9DKD1PKVtDQEBIXShGKUM0KE9GKVtDQEhdKFtOSF00KVtDSDJdW09IXQ==

>  <s_glide_docking_method>  (1) 
confgen

>  <s_i_glide_gridfile>  (1) 
gpcr_drd2_6luq_protein_autoprepared_prepared

>  <s_lp_Force_Field>  (1) 
S-OPLS

>  <s_lp_Variant>  (1) 
DiffSBDD_32-1

>  <s_m_source_file>  (1) 
generated_generic_title2_ligand_DiffSBDD_2026-06-23_prepared.sdf

>  <GenAI_Model>  (1) 
DiffSBDD

>  <Protein>  (1) 
generic_title2

$$$$
DiffSBDD_64
     RDKit          3D

  0  0  0  0  0  0  0  0  0  0999 V3000
M  V30 BEGIN CTAB
M  V30 COUNTS 77 80 0 0 1
M  V30 BEGIN ATOM
M  V30 1 C 7.565224 2.814431 -19.694158 0
M  V30 2 C 16.156499 5.181549 -16.401034 0
M  V30 3 C 6.709703 5.229510 -19.527340 0 CFG=2
M  V30 4 C 9.848047 4.941586 -16.151146 0
M  V30 5 C 16.455925 6.974721 -19.802998 0
M  V30 6 C 5.204674 7.348246 -19.813790 0
M  V30 7 C 9.508401 3.991975 -17.311835 0 CFG=1
M  V30 8 O 18.163012 5.997631 -17.292691 0
M  V30 9 C 4.565031 4.963786 -20.585757 0
M  V30 10 C 7.632529 5.762154 -20.650374 0
M  V30 11 C 11.142228 5.721375 -16.423563 0
M  V30 12 C 17.254386 5.699650 -20.071750 0
M  V30 13 C 16.921368 4.789134 -18.892598 0
M  V30 14 C 5.528583 3.012286 -21.911447 0
M  V30 15 N 6.426094 3.774274 -19.624441 0 CFG=1 CHG=1
M  V30 16 C 6.507662 1.076324 -18.149427 0
M  V30 17 C 16.826149 5.743354 -17.685382 0 CFG=1
M  V30 18 C 5.297588 5.834179 -19.559129 0 CFG=1
M  V30 19 C 5.239173 3.581254 -20.506222 0 CFG=1
M  V30 20 C 10.713217 3.081905 -17.607370 0
M  V30 21 C 11.990567 3.903061 -17.851976 0
M  V30 22 C 14.767350 4.529836 -16.544703 0
M  V30 23 C 13.764830 6.366444 -18.048276 0
M  V30 24 C 14.827541 7.466843 -17.897967 0
M  V30 25 C 16.271640 7.073380 -18.271697 0 CFG=2
M  V30 26 S 7.993340 3.054376 -16.924717 0
M  V30 27 N 12.281980 4.807219 -16.705271 0 CFG=1 CHG=1
M  V30 28 C 13.598626 5.512649 -16.768512 0 CFG=1
M  V30 29 C 7.708457 2.004560 -18.389132 0 CFG=2
M  V30 30 H 8.503254 3.321154 -19.900460 0
M  V30 31 H 7.456384 2.108088 -20.513058 0
M  V30 32 H 16.814657 4.416587 -15.985288 0
M  V30 33 H 16.114244 5.959955 -15.637744 0
M  V30 34 H 7.171717 5.449350 -18.565096 0
M  V30 35 H 9.025577 5.640530 -15.995943 0
M  V30 36 H 9.947821 4.390237 -15.217300 0
M  V30 37 H 16.955818 7.854385 -20.210395 0
M  V30 38 H 15.491315 6.902273 -20.306948 0
M  V30 39 H 5.571135 7.623889 -20.802918 0
M  V30 40 H 4.175401 7.693575 -19.744727 0
M  V30 41 H 5.775446 7.907018 -19.073178 0
M  V30 42 H 9.314321 4.601061 -18.193339 0
M  V30 43 H 18.618046 6.390090 -18.022942 0
M  V30 44 H 4.682101 5.391817 -21.582572 0
M  V30 45 H 3.496369 4.898369 -20.385120 0
M  V30 46 H 7.216353 5.588649 -21.642399 0
M  V30 47 H 8.628073 5.323318 -20.625487 0
M  V30 48 H 7.786462 6.836484 -20.546927 0
M  V30 49 H 11.375657 6.346896 -15.561624 0
M  V30 50 H 10.975473 6.390182 -17.266397 0
M  V30 51 H 18.321912 5.923531 -20.080191 0
M  V30 52 H 17.006965 5.247039 -21.032298 0
M  V30 53 H 17.657998 3.993290 -18.785013 0
M  V30 54 H 15.961977 4.315160 -19.093059 0
M  V30 55 H 6.346258 3.535967 -22.406072 0
M  V30 56 H 4.652162 3.102404 -22.554690 0
M  V30 57 H 5.770782 1.949875 -21.879468 0
M  V30 58 H 6.345653 0.411127 -18.998451 0
M  V30 59 H 6.670040 0.449880 -17.271239 0
M  V30 60 H 5.585938 1.633909 -17.983902 0
M  V30 61 H 4.847164 5.645189 -18.583187 0
M  V30 62 H 4.575453 2.887380 -19.990697 0
M  V30 63 H 10.525113 2.471319 -18.489507 0
M  V30 64 H 10.869780 2.385928 -16.785027 0
M  V30 65 H 11.876408 4.487623 -18.765833 0
M  V30 66 H 12.815274 3.213039 -18.022743 0
M  V30 67 H 14.570448 3.985953 -15.619211 0
M  V30 68 H 14.804153 3.765759 -17.317541 0
M  V30 69 H 12.831794 6.879529 -18.274117 0
M  V30 70 H 13.967405 5.740019 -18.916847 0
M  V30 71 H 14.794908 7.861749 -16.884269 0
M  V30 72 H 14.540774 8.313013 -18.524647 0
M  V30 73 H 16.893250 7.900257 -17.920848 0
M  V30 74 H 13.608539 6.187081 -15.910387 0
M  V30 75 H 8.579049 1.357298 -18.491000 0
M  V30 76 H 12.340195 4.219655 -15.881347 0
M  V30 77 H 6.044568 3.578659 -18.708860 0
M  V30 END ATOM
M  V30 BEGIN BOND
M  V30 1 1 7 4
M  V30 2 1 10 3
M  V30 3 1 11 4
M  V30 4 1 12 5
M  V30 5 1 13 12
M  V30 6 1 15 1
M  V30 7 1 15 3
M  V30 8 1 17 2
M  V30 9 1 17 8 CFG=1
M  V30 10 1 17 13
M  V30 11 1 18 3
M  V30 12 1 18 6
M  V30 13 1 18 9
M  V30 14 1 19 9
M  V30 15 1 19 14
M  V30 16 1 19 15
M  V30 17 1 20 7
M  V30 18 1 21 20
M  V30 19 1 22 2
M  V30 20 1 24 23
M  V30 21 1 25 5
M  V30 22 1 25 17
M  V30 23 1 25 24
M  V30 24 1 26 7
M  V30 25 1 27 11
M  V30 26 1 27 21
M  V30 27 1 28 22
M  V30 28 1 28 23
M  V30 29 1 28 27
M  V30 30 1 29 1
M  V30 31 1 29 16
M  V30 32 1 29 26
M  V30 33 1 30 1
M  V30 34 1 31 1
M  V30 35 1 32 2
M  V30 36 1 33 2
M  V30 37 1 3 34 CFG=1
M  V30 38 1 35 4
M  V30 39 1 36 4
M  V30 40 1 37 5
M  V30 41 1 38 5
M  V30 42 1 39 6
M  V30 43 1 40 6
M  V30 44 1 41 6
M  V30 45 1 7 42 CFG=3
M  V30 46 1 43 8
M  V30 47 1 44 9
M  V30 48 1 45 9
M  V30 49 1 46 10
M  V30 50 1 47 10
M  V30 51 1 48 10
M  V30 52 1 49 11
M  V30 53 1 50 11
M  V30 54 1 51 12
M  V30 55 1 52 12
M  V30 56 1 53 13
M  V30 57 1 54 13
M  V30 58 1 55 14
M  V30 59 1 56 14
M  V30 60 1 57 14
M  V30 61 1 58 16
M  V30 62 1 59 16
M  V30 63 1 60 16
M  V30 64 1 18 61 CFG=1
M  V30 65 1 19 62 CFG=1
M  V30 66 1 63 20
M  V30 67 1 64 20
M  V30 68 1 65 21
M  V30 69 1 66 21
M  V30 70 1 67 22
M  V30 71 1 68 22
M  V30 72 1 69 23
M  V30 73 1 70 23
M  V30 74 1 71 24
M  V30 75 1 72 24
M  V30 76 1 25 73 CFG=1
M  V30 77 1 28 74 CFG=1
M  V30 78 1 29 75 CFG=3
M  V30 79 1 27 76 CFG=1
M  V30 80 1 15 77 CFG=1
M  V30 END BOND
M  V30 END CTAB
M  END
>  <i_epik_Tot_Q>  (1) 
2

>  <i_epik_Tot_abs_Q>  (1) 
2

>  <i_i_glide_confnum>  (1) 
183

>  <i_i_glide_lignum>  (1) 
104

>  <i_i_glide_posenum>  (1) 
242

>  <i_i_glide_rotatable_bonds>  (1) 
6

>  <i_lp_mmshare_version>  (1) 
72125

>  <i_m_source_file_index>  (1) 
65

>  <i_f3d_flags>  (1) 
0

>  <num_sample>  (1) 
100

>  <b_lp_Chiralities_Consistent>  (1) 
1

>  <r_epik_Charging_Adjusted_Penalty>  (1) 
0.010385271147369776

>  <r_epik_Ionization_Penalty>  (1) 
0.010385491156522124

>  <r_epik_Ionization_Penalty_Charging>  (1) 
0.010385271147369776

>  <r_epik_Ionization_Penalty_Neutral>  (1) 
2.2000915234807092e-07

>  <r_epik_State_Penalty>  (1) 
-0

>  <r_glide_ring_energy>  (1) 
0.15487863939553237

>  <r_i_docking_score>  (1) 
-3.3299848492202972

>  <r_i_glide_ecoul>  (1) 
-4.0355749979468261

>  <r_i_glide_eff_state_penalty>  (1) 
-0

>  <r_i_glide_einternal>  (1) 
5.4764093018597322

>  <r_i_glide_emodel>  (1) 
-29.00114173431966

>  <r_i_glide_emodel_strain>  (1) 
0.153088282095041

>  <r_i_glide_energy>  (1) 
-26.854264677960508

>  <r_i_glide_erotb>  (1) 
0.5496323063178965

>  <r_i_glide_esite>  (1) 
-0.011446925072469185

>  <r_i_glide_evdw>  (1) 
-22.81868968001368

>  <r_i_glide_gscore>  (1) 
-3.3299848492202972

>  <r_i_glide_gscore_strain>  (1) 
0

>  <r_i_glide_hbond>  (1) 
0

>  <r_i_glide_ligand_efficiency>  (1) 
-0.11482706376621715

>  <r_i_glide_ligand_efficiency_ln>  (1) 
-0.7624820893414519

>  <r_i_glide_ligand_efficiency_sa>  (1) 
-0.35278512005305068

>  <r_i_glide_lipo>  (1) 
-1.6087502467730161

>  <r_i_glide_metal>  (1) 
-0

>  <r_i_glide_rewards>  (1) 
-0.51314925000000067

>  <r_lp_Energy>  (1) 
54.489440999999999

>  <r_lp_tautomer_probability>  (1) 
1

>  <s_epik_cmdline>  (1) 
J2VwaWtfcHl0aG9uJywgJy1waHQnLCAnMS4wJywgJy1waCcsICc3LjQnLCAnLXRuJywgJzgnLCAnLW1hJywgJzUwMCcsICctaW1hZScsICc8aW5maWxlLm1hZT4nLCAnLW9tYWUnLCAnPG91dGZpbGUubWFlPic=

>  <s_epik_input>  (1) 
W0NIM11bQ0BIXTFbQ0gyXVtDQEBIXShbQ0gzXSlOKFtDQEhdMVtDSDNdKVtDSDJdW0NASF0oW0NIM10pU1tDSF0yW0NIMl1bQ0gyXU4oW0NIMl1bQ0gyXTIpW0NAQEhdKFtDSDJdW0NIMl0zKVtDSDJdW0NIMl1bQ0BASF0oW0NAQF0zNFtPSF0pW0NIMl1bQ0gyXVtDSDJdNA==

>  <s_glide_docking_method>  (1) 
confgen

>  <s_i_glide_gridfile>  (1) 
gpcr_drd2_6luq_protein_autoprepared_prepared

>  <s_lp_Force_Field>  (1) 
S-OPLS

>  <s_lp_Variant>  (1) 
DiffSBDD_64-3

>  <s_m_source_file>  (1) 
generated_generic_title2_ligand_DiffSBDD_2026-06-23_prepared.sdf

>  <GenAI_Model>  (1) 
DiffSBDD

>  <Protein>  (1) 
generic_title2

$$$$
DiffSBDD_74
     RDKit          3D

  0  0  0  0  0  0  0  0  0  0999 V3000
M  V30 BEGIN CTAB
M  V30 COUNTS 92 99 0 0 1
M  V30 BEGIN ATOM
M  V30 1 C 16.883714 8.410885 -19.228059 0 CFG=2
M  V30 2 N 9.551368 3.015052 -21.696528 0
M  V30 3 C 7.995182 1.192750 -21.231768 0
M  V30 4 C 9.858372 4.414851 -21.777904 0
M  V30 5 F 12.058076 7.974053 -20.003514 0
M  V30 6 O 17.733492 7.339891 -17.184954 0
M  V30 7 O 14.319385 4.103515 -18.498586 0
M  V30 8 C 10.665095 2.028055 -21.833194 0 CFG=2
M  V30 9 C 5.496479 0.127094 -18.858131 0
M  V30 10 C 17.127818 7.070440 -18.444628 0 CFG=1
M  V30 11 C 17.027263 4.484015 -19.762286 0 CFG=2
M  V30 12 C 8.189397 2.533715 -21.425101 0
M  V30 13 C 11.937465 1.815570 -17.724387 0
M  V30 14 C 14.946166 6.622243 -19.687977 0 CFG=1
M  V30 15 C 5.915515 1.090951 -19.821825 0
M  V30 16 C 13.068491 7.354177 -19.398715 0
M  V30 17 C 13.228611 5.979590 -21.645711 0 CFG=2
M  V30 18 C 14.675124 3.571390 -19.746389 0 CFG=1
M  V30 19 C 14.431592 8.016079 -19.794496 0 CFG=1
M  V30 20 O 11.191146 4.575759 -21.983780 0
M  V30 21 O 19.314770 5.104398 -20.252493 0
M  V30 22 O 17.375440 4.856578 -17.391380 0
M  V30 23 C 18.043130 4.916309 -20.842124 0 CFG=1
M  V30 24 S 11.138533 2.735590 -19.069619 0 CHG=1
M  V30 25 C 14.838212 2.062176 -19.805101 0
M  V30 26 C 18.203125 3.862242 -21.948046 0
M  V30 27 C 17.916699 9.506798 -18.899139 0
M  V30 28 N 5.137544 -0.640985 -18.071649 0
M  V30 29 C 9.128504 0.187042 -21.289262 0
M  V30 30 C 7.060997 3.521049 -21.357563 0
M  V30 31 C 15.040092 6.416623 -17.026315 0
M  V30 32 C 15.779224 6.353039 -18.389830 0 CFG=2
M  V30 33 O 9.081545 5.358808 -21.663304 0
M  V30 34 C 14.056414 5.043630 -22.547732 0
M  V30 35 C 11.997596 4.352173 -18.977619 0
M  V30 36 C 15.403028 8.972647 -19.084667 0
M  V30 37 F 12.783704 7.275053 -18.104338 0
M  V30 38 C 13.578581 6.009989 -20.089964 0 CFG=1
M  V30 39 C 5.574337 2.368852 -19.666624 0
M  V30 40 C 11.731477 5.889053 -22.033912 0
M  V30 41 C 13.426503 4.543348 -19.539086 0 CFG=1
M  V30 42 C 10.193517 0.644844 -22.247516 0
M  V30 43 O 15.769205 4.223076 -20.414037 0
M  V30 44 C 11.675157 1.979747 -20.646073 0
M  V30 45 C 6.646004 0.586267 -21.009717 0
M  V30 46 C 16.958539 5.491509 -18.587783 0 CFG=1
M  V30 47 C 5.936267 3.444700 -20.583692 0
M  V30 48 H 17.052485 8.189070 -20.282806 0
M  V30 49 H 18.486235 7.892182 -17.337179 0
M  V30 50 H 11.249546 2.318292 -22.709096 0
M  V30 51 H 17.366713 3.525645 -19.369022 0
M  V30 52 H 11.509589 2.157899 -16.785367 0
M  V30 53 H 13.005901 1.995109 -17.650958 0
M  V30 54 H 11.749063 0.745689 -17.812727 0
M  V30 55 H 15.589913 6.526580 -20.560474 0
M  V30 56 H 13.480272 6.954813 -22.052032 0
M  V30 57 H 14.385092 8.329984 -20.835941 0
M  V30 58 H 19.934777 5.337551 -20.927073 0
M  V30 59 H 17.602184 5.589579 -16.824602 0
M  V30 60 H 17.731741 5.860598 -21.289242 0
M  V30 61 H 15.719292 1.764608 -19.237125 0
M  V30 62 H 14.986498 1.750890 -20.839138 0
M  V30 63 H 13.993956 1.514340 -19.412124 0
M  V30 64 H 17.263663 3.699436 -22.476709 0
M  V30 65 H 18.521350 2.902803 -21.538003 0
M  V30 66 H 18.942582 4.169885 -22.687869 0
M  V30 67 H 17.790294 9.898009 -17.888352 0
M  V30 68 H 17.815517 10.348074 -19.585144 0
M  V30 69 H 18.936302 9.132969 -18.998363 0
M  V30 70 H 9.523680 0.030020 -20.285040 0
M  V30 71 H 8.763829 -0.779783 -21.638235 0
M  V30 72 H 7.150414 4.413794 -21.942071 0
M  V30 73 H 14.159927 5.785049 -16.971424 0
M  V30 74 H 14.731713 7.431229 -16.790249 0
M  V30 75 H 15.669052 6.103909 -16.195068 0
M  V30 76 H 13.915510 3.992154 -22.303293 0
M  V30 77 H 15.119496 5.276859 -22.506245 0
M  V30 78 H 13.761997 5.162714 -23.590963 0
M  V30 79 H 11.338807 5.070071 -19.459277 0
M  V30 80 H 11.994948 4.661578 -17.931944 0
M  V30 81 H 15.137279 9.133430 -18.041620 0
M  V30 82 H 15.338006 9.957489 -19.548751 0
M  V30 83 H 4.973834 2.625591 -18.807668 0
M  V30 84 H 11.139909 6.565694 -21.422901 0
M  V30 85 H 11.610078 6.240596 -23.059214 0
M  V30 86 H 9.777708 0.683728 -23.256293 0
M  V30 87 H 11.018593 -0.067782 -22.285729 0
M  V30 88 H 11.947579 0.945228 -20.437081 0
M  V30 89 H 12.584535 2.462845 -20.983044 0
M  V30 90 H 6.034985 0.765624 -21.895976 0
M  V30 91 H 6.718610 -0.498793 -20.925919 0
M  V30 92 H 5.267908 4.292701 -20.621041 0
M  V30 END ATOM
M  V30 BEGIN BOND
M  V30 1 1 4 2
M  V30 2 1 8 2
M  V30 3 1 10 1
M  V30 4 1 10 6 CFG=1
M  V30 5 1 12 2
M  V30 6 2 12 3
M  V30 7 1 15 9
M  V30 8 1 16 5
M  V30 9 1 18 7
M  V30 10 1 19 14
M  V30 11 1 19 16
M  V30 12 1 20 4
M  V30 13 1 23 11
M  V30 14 1 23 21
M  V30 15 1 24 13 CFG=1
M  V30 16 1 18 25 CFG=1
M  V30 17 1 26 23
M  V30 18 1 27 1
M  V30 19 3 28 9
M  V30 20 1 29 3
M  V30 21 1 30 12
M  V30 22 1 32 10
M  V30 23 1 32 14
M  V30 24 1 32 31 CFG=1
M  V30 25 2 33 4
M  V30 26 1 34 17
M  V30 27 1 35 24
M  V30 28 1 36 1
M  V30 29 1 36 19
M  V30 30 1 37 16
M  V30 31 1 38 14
M  V30 32 1 38 16 CFG=1
M  V30 33 1 38 17
M  V30 34 2 39 15
M  V30 35 1 40 17
M  V30 36 1 40 20
M  V30 37 1 41 7 CFG=1
M  V30 38 1 41 18
M  V30 39 1 41 35
M  V30 40 1 41 38
M  V30 41 1 42 8
M  V30 42 1 42 29
M  V30 43 1 43 11
M  V30 44 1 43 18
M  V30 45 1 44 8
M  V30 46 1 44 24
M  V30 47 1 45 3
M  V30 48 1 45 15
M  V30 49 1 46 10
M  V30 50 1 46 11
M  V30 51 1 46 22 CFG=1
M  V30 52 1 46 32
M  V30 53 2 47 30
M  V30 54 1 47 39
M  V30 55 1 1 48 CFG=3
M  V30 56 1 49 6
M  V30 57 1 8 50 CFG=3
M  V30 58 1 11 51 CFG=1
M  V30 59 1 52 13
M  V30 60 1 53 13
M  V30 61 1 54 13
M  V30 62 1 14 55 CFG=3
M  V30 63 1 17 56 CFG=3
M  V30 64 1 19 57 CFG=3
M  V30 65 1 58 21
M  V30 66 1 59 22
M  V30 67 1 23 60 CFG=3
M  V30 68 1 61 25
M  V30 69 1 62 25
M  V30 70 1 63 25
M  V30 71 1 64 26
M  V30 72 1 65 26
M  V30 73 1 66 26
M  V30 74 1 67 27
M  V30 75 1 68 27
M  V30 76 1 69 27
M  V30 77 1 70 29
M  V30 78 1 71 29
M  V30 79 1 72 30
M  V30 80 1 73 31
M  V30 81 1 74 31
M  V30 82 1 75 31
M  V30 83 1 76 34
M  V30 84 1 77 34
M  V30 85 1 78 34
M  V30 86 1 79 35
M  V30 87 1 80 35
M  V30 88 1 81 36
M  V30 89 1 82 36
M  V30 90 1 83 39
M  V30 91 1 84 40
M  V30 92 1 85 40
M  V30 93 1 86 42
M  V30 94 1 87 42
M  V30 95 1 88 44
M  V30 96 1 89 44
M  V30 97 1 90 45
M  V30 98 1 91 45
M  V30 99 1 92 47
M  V30 END BOND
M  V30 END CTAB
M  END
>  <i_epik_Tot_Q>  (1) 
1

>  <i_epik_Tot_abs_Q>  (1) 
1

>  <i_i_glide_confnum>  (1) 
2

>  <i_i_glide_lignum>  (1) 
122

>  <i_i_glide_posenum>  (1) 
26

>  <i_i_glide_rotatable_bonds>  (1) 
4

>  <i_lp_mmshare_version>  (1) 
72125

>  <i_m_source_file_index>  (1) 
75

>  <i_f3d_flags>  (1) 
0

>  <num_sample>  (1) 
100

>  <b_lp_Chiralities_Consistent>  (1) 
1

>  <r_epik_Charging_Adjusted_Penalty>  (1) 
0

>  <r_epik_Ionization_Penalty>  (1) 
2.279428951435475e-07

>  <r_epik_Ionization_Penalty_Charging>  (1) 
0

>  <r_epik_Ionization_Penalty_Neutral>  (1) 
2.279428951435475e-07

>  <r_epik_State_Penalty>  (1) 
-0

>  <r_glide_ring_energy>  (1) 
0

>  <r_i_docking_score>  (1) 
-3.3205647208129143

>  <r_i_glide_ecoul>  (1) 
-6.05788217601601

>  <r_i_glide_eff_state_penalty>  (1) 
-0

>  <r_i_glide_einternal>  (1) 
0.40734939529610603

>  <r_i_glide_emodel>  (1) 
-33.85220065592523

>  <r_i_glide_emodel_strain>  (1) 
0.056504218622450253

>  <r_i_glide_energy>  (1) 
-28.701520082407754

>  <r_i_glide_erotb>  (1) 
0.046727806610761473

>  <r_i_glide_esite>  (1) 
-0.0050332030595549209

>  <r_i_glide_evdw>  (1) 
-22.643637906391746

>  <r_i_glide_gscore>  (1) 
-3.3205647208129143

>  <r_i_glide_gscore_strain>  (1) 
0

>  <r_i_glide_hbond>  (1) 
-0.32000000000000001

>  <r_i_glide_ligand_efficiency>  (1) 
-0.070650313208785412

>  <r_i_glide_ligand_efficiency_ln>  (1) 
-0.68463168412486131

>  <r_i_glide_ligand_efficiency_sa>  (1) 
-0.25496469287783213

>  <r_i_glide_lipo>  (1) 
-0.77586767677240864

>  <r_i_glide_metal>  (1) 
-0

>  <r_i_glide_rewards>  (1) 
-0.2255274258697241

>  <r_lp_Energy>  (1) 
160.485421

>  <r_lp_tautomer_probability>  (1) 
1

>  <s_epik_Chemistry_Notes>  (1) 
This compound has an ester and may undergo hydrolysis at high or low pH.

>  <s_epik_cmdline>  (1) 
J2VwaWtfcHl0aG9uJywgJy1waHQnLCAnMS4wJywgJy1waCcsICc3LjQnLCAnLXRuJywgJzgnLCAnLW1hJywgJzUwMCcsICctaW1hZScsICc8aW5maWxlLm1hZT4nLCAnLW9tYWUnLCAnPG91dGZpbGUubWFlPic=

>  <s_epik_input>  (1) 
W0NIM11bQ0BASF0xW0NIMl1bQ0BIXShDMihGKUYpW0NASF0zW0NAXTQoW0NIM10pW0NAQF0xKFtPSF0pQzQoW09IXSlbQ0BIXShbQ0BASF0oW09IXSlbQ0gzXSlPW0NAQF0oTzUpKFtDSDNdKVtDQEBdNShbQ0BdMjM2KVtDSDJdW1MrXShbQ0gzXSlbQ0gyXVtDQEhdN04oQyg9TylPW0NIMl1bQ0BASF02W0NIM10pQzg9QyhbQ0gyXVtDSDJdNylbQ0gyXUMoQyNOKT1bQ0hdW0NIXT1bQ0hdOA==

>  <s_glide_docking_method>  (1) 
confgen

>  <s_i_glide_gridfile>  (1) 
gpcr_drd2_6luq_protein_autoprepared_prepared

>  <s_lp_Force_Field>  (1) 
S-OPLS

>  <s_lp_Variant>  (1) 
DiffSBDD_74-2

>  <s_m_source_file>  (1) 
generated_generic_title2_ligand_DiffSBDD_2026-06-23_prepared.sdf

>  <GenAI_Model>  (1) 
DiffSBDD

>  <Protein>  (1) 
generic_title2

$$$$
DiffSBDD_25
     RDKit          3D

  0  0  0  0  0  0  0  0  0  0999 V3000
M  V30 BEGIN CTAB
M  V30 COUNTS 64 67 0 0 1
M  V30 BEGIN ATOM
M  V30 1 C 13.031731 8.086311 -22.504470 0
M  V30 2 C 7.160564 4.167201 -15.692381 0
M  V30 3 C 12.867865 5.163401 -19.248668 0
M  V30 4 C 11.912514 4.417038 -17.077917 0
M  V30 5 N 13.030700 5.078434 -17.772131 0
M  V30 6 C 8.833554 5.111306 -12.380661 0
M  V30 7 C 14.613998 4.817074 -15.983480 0
M  V30 8 C 8.629537 4.892553 -13.761108 0
M  V30 9 C 13.807195 4.287109 -20.165907 0 CFG=1
M  V30 10 C 15.156279 7.433588 -21.317107 0
M  V30 11 C 15.074245 6.567817 -17.572952 0
M  V30 12 O 8.197252 4.270484 -17.841521 0
M  V30 13 C 15.533944 8.591841 -18.986243 0 CFG=1
M  V30 14 C 14.372423 2.193037 -18.709328 0
M  V30 15 C 9.697103 5.189448 -14.716989 0
M  V30 16 C 7.391174 4.399182 -14.212368 0
M  V30 17 C 14.406870 5.090375 -21.350785 0
M  V30 18 C 9.595785 5.009882 -16.050847 0
M  V30 19 C 14.513897 7.704003 -22.657238 0
M  V30 20 O 13.195128 1.835443 -18.932895 0
M  V30 21 C 14.661210 7.528742 -18.414105 0
M  V30 22 C 15.776701 8.542799 -20.500121 0 CFG=2
M  V30 23 C 7.803515 4.839435 -11.460595 0
M  V30 24 C 8.335732 4.472916 -16.635756 0
M  V30 25 C 14.215452 5.478402 -17.085722 0
M  V30 26 C 14.898995 3.414535 -19.478488 0
M  V30 27 C 14.966594 9.664342 -19.882996 0
M  V30 28 C 6.565526 4.349767 -11.915164 0
M  V30 29 C 6.358849 4.128503 -13.289373 0
M  V30 30 C 10.707263 5.375112 -17.034339 0
M  V30 31 N 15.175189 6.230046 -20.825114 0 CHG=1
M  V30 32 O 15.167368 1.640154 -17.918906 0 CHG=-1
M  V30 33 H 12.559950 8.177543 -23.483139 0
M  V30 34 H 12.908877 9.043752 -21.999688 0
M  V30 35 H 12.464096 7.341141 -21.947498 0
M  V30 36 H 6.873171 3.127157 -15.841985 0
M  V30 37 H 6.320831 4.793110 -15.996949 0
M  V30 38 H 11.879435 4.749662 -19.447281 0
M  V30 39 H 12.717076 6.159109 -19.646247 0
M  V30 40 H 12.140411 4.144882 -16.052891 0
M  V30 41 H 11.644933 3.489453 -17.585627 0
M  V30 42 H 9.781117 5.491553 -12.028332 0
M  V30 43 H 15.519602 5.098446 -15.467750 0
M  V30 44 H 14.053080 3.987510 -15.586342 0
M  V30 45 H 13.142340 3.583732 -20.669071 0
M  V30 46 H 16.102697 6.593814 -17.237310 0
M  V30 47 H 16.388348 8.847986 -18.360250 0
M  V30 48 H 10.610861 5.592407 -14.307548 0
M  V30 49 H 15.091317 4.486014 -21.946431 0
M  V30 50 H 13.604949 5.432769 -22.000233 0
M  V30 51 H 15.057167 8.508665 -23.153200 0
M  V30 52 H 13.640122 7.542938 -18.735324 0
M  V30 53 H 7.962595 5.010131 -10.404494 0
M  V30 54 H 15.557819 3.004835 -20.243823 0
M  V30 55 H 15.544397 4.004462 -18.831265 0
M  V30 56 H 13.888078 9.670702 -20.028474 0
M  V30 57 H 15.423974 10.650488 -19.825342 0
M  V30 58 H 5.774011 4.143697 -11.209189 0
M  V30 59 H 5.407725 3.753163 -13.636869 0
M  V30 60 H 11.078637 6.348365 -16.710167 0
M  V30 61 H 10.312330 5.548228 -18.035321 0
M  V30 62 H 16.767310 8.791750 -20.875095 0
M  V30 63 H 14.619969 6.843111 -23.315398 0
M  V30 64 H 15.636924 6.086685 -19.930076 0
M  V30 END ATOM
M  V30 BEGIN BOND
M  V30 1 1 5 3
M  V30 2 1 5 4
M  V30 3 2 8 6
M  V30 4 1 9 3
M  V30 5 1 15 8
M  V30 6 1 16 2
M  V30 7 1 16 8
M  V30 8 1 17 9
M  V30 9 2 18 15
M  V30 10 1 19 1
M  V30 11 1 19 10
M  V30 12 2 20 14
M  V30 13 2 21 11
M  V30 14 1 21 13
M  V30 15 1 22 10
M  V30 16 1 22 13
M  V30 17 1 23 6
M  V30 18 1 24 2
M  V30 19 2 24 12
M  V30 20 1 24 18
M  V30 21 1 25 5
M  V30 22 2 25 7
M  V30 23 1 25 11
M  V30 24 1 26 9
M  V30 25 1 26 14
M  V30 26 1 27 13
M  V30 27 1 27 22
M  V30 28 2 28 23
M  V30 29 2 29 16
M  V30 30 1 29 28
M  V30 31 1 30 4
M  V30 32 1 30 18
M  V30 33 2 31 10
M  V30 34 1 31 17
M  V30 35 1 32 14
M  V30 36 1 33 1
M  V30 37 1 34 1
M  V30 38 1 35 1
M  V30 39 1 36 2
M  V30 40 1 37 2
M  V30 41 1 38 3
M  V30 42 1 39 3
M  V30 43 1 40 4
M  V30 44 1 41 4
M  V30 45 1 42 6
M  V30 46 1 43 7
M  V30 47 1 44 7
M  V30 48 1 9 45 CFG=3
M  V30 49 1 46 11
M  V30 50 1 13 47 CFG=1
M  V30 51 1 48 15
M  V30 52 1 49 17
M  V30 53 1 50 17
M  V30 54 1 51 19
M  V30 55 1 52 21
M  V30 56 1 53 23
M  V30 57 1 54 26
M  V30 58 1 55 26
M  V30 59 1 56 27
M  V30 60 1 57 27
M  V30 61 1 58 28
M  V30 62 1 59 29
M  V30 63 1 60 30
M  V30 64 1 61 30
M  V30 65 1 22 62 CFG=1
M  V30 66 1 63 19
M  V30 67 1 64 31
M  V30 END BOND
M  V30 END CTAB
M  END
>  <i_epik_Tot_Q>  (1) 
0

>  <i_epik_Tot_abs_Q>  (1) 
2

>  <i_i_glide_confnum>  (1) 
112

>  <i_i_glide_lignum>  (1) 
43

>  <i_i_glide_posenum>  (1) 
254

>  <i_i_glide_rotatable_bonds>  (1) 
6

>  <i_lp_mmshare_version>  (1) 
72125

>  <i_m_source_file_index>  (1) 
26

>  <i_f3d_flags>  (1) 
0

>  <num_sample>  (1) 
100

>  <b_lp_Chiralities_Consistent>  (1) 
1

>  <r_epik_Charging_Adjusted_Penalty>  (1) 
0.12353365736142194

>  <r_epik_Ionization_Penalty>  (1) 
13.465358995569625

>  <r_epik_Ionization_Penalty_Charging>  (1) 
0.062700894571276394

>  <r_epik_Ionization_Penalty_Neutral>  (1) 
13.402658100998348

>  <r_epik_State_Penalty>  (1) 
0.060832762790145552

>  <r_glide_ring_energy>  (1) 
0

>  <r_i_docking_score>  (1) 
-3.3151952792769279

>  <r_i_glide_ecoul>  (1) 
-2.6882515268937897

>  <r_i_glide_eff_state_penalty>  (1) 
0.060832762790145552

>  <r_i_glide_einternal>  (1) 
2.4919413931341334

>  <r_i_glide_emodel>  (1) 
-31.348213002576376

>  <r_i_glide_emodel_strain>  (1) 
0.60965962587020783

>  <r_i_glide_energy>  (1) 
-27.389225818657629

>  <r_i_glide_erotb>  (1) 
0.42539970400538585

>  <r_i_glide_esite>  (1) 
0

>  <r_i_glide_evdw>  (1) 
-24.700974291763838

>  <r_i_glide_gscore>  (1) 
-3.3760280420670736

>  <r_i_glide_gscore_strain>  (1) 
0

>  <r_i_glide_hbond>  (1) 
-0.016373317486249501

>  <r_i_glide_ligand_efficiency>  (1) 
-0.103599852477404

>  <r_i_glide_ligand_efficiency_ln>  (1) 
-0.74236259184035391

>  <r_i_glide_ligand_efficiency_sa>  (1) 
-0.3289090296127628

>  <r_i_glide_lipo>  (1) 
-1.1670533654760282

>  <r_i_glide_metal>  (1) 
-0

>  <r_i_glide_rewards>  (1) 
-0.97971461948792171

>  <r_lp_Energy>  (1) 
49.732040999999995

>  <s_epik_Chemistry_Notes>  (1) 
This compound has an imine and may undergo hydrolysis.

>  <s_epik_cmdline>  (1) 
J2VwaWtfcHl0aG9uJywgJy1waHQnLCAnMS4wJywgJy1waCcsICc3LjQnLCAnLXRuJywgJzgnLCAnLW1hJywgJzUwMCcsICctaW1hZScsICc8aW5maWxlLm1hZT4nLCAnLW9tYWUnLCAnPG91dGZpbGUubWFlPic=

>  <s_epik_input>  (1) 
W0NIM10vW0NIXT1DKFxbQ0BIXShbQ0BIXTEyKVtDSDJdMilbTkhdW0NIMl1bQ0BASF0oW0NIMl1DKD1PKVtPSF0pW0NIMl1OKEMoPVtDSDJdKS9bQ0hdPVtDSF0vMSlbQ0gyXVtDSDJdQyg9W0NIXTMpQyg9TylbQ0gyXWMoYzM0KVtjSF1bY0hdW2NIXVtjSF00

>  <s_glide_docking_method>  (1) 
confgen

>  <s_i_glide_gridfile>  (1) 
gpcr_drd2_6luq_protein_autoprepared_prepared

>  <s_lp_Force_Field>  (1) 
S-OPLS

>  <s_lp_Variant>  (1) 
DiffSBDD_25-1

>  <s_m_source_file>  (1) 
generated_generic_title2_ligand_DiffSBDD_2026-06-23_prepared.sdf

>  <GenAI_Model>  (1) 
DiffSBDD

>  <Protein>  (1) 
generic_title2

$$$$
DiffSBDD_61
     RDKit          3D

  0  0  0  0  0  0  0  0  0  0999 V3000
M  V30 BEGIN CTAB
M  V30 COUNTS 46 47 0 0 1
M  V30 BEGIN ATOM
M  V30 1 C 7.648470 4.818215 -10.908608 0
M  V30 2 O 7.340639 3.611214 -13.942098 0 CHG=-1
M  V30 3 C 15.877071 5.040698 -16.767849 0
M  V30 4 O 9.256881 5.347168 -13.533539 0
M  V30 5 N 8.975410 6.359035 -9.506111 0 CFG=2 CHG=1
M  V30 6 O 16.175403 3.990227 -17.361549 0 CHG=-1
M  V30 7 C 11.044798 3.190233 -17.611337 0
M  V30 8 C 9.016977 5.492065 -10.717661 0 CFG=2
M  V30 9 P 9.476203 6.483957 -12.260959 0
M  V30 10 F 12.048929 6.390222 -16.097655 0
M  V30 11 C 9.716813 6.390260 -7.192241 0
M  V30 12 N 14.578185 5.372602 -16.552960 0
M  V30 13 O 7.155597 5.931064 -14.988947 0
M  V30 14 O 8.524941 7.609760 -12.385024 0 CHG=-1
M  V30 15 C 13.480411 3.308616 -17.538737 0
M  V30 16 O 8.788896 4.216459 -15.944848 0
M  V30 17 F 11.121137 8.293152 -7.423052 0
M  V30 18 P 7.993778 4.790228 -14.555015 0
M  V30 19 C 13.401366 4.600266 -16.931699 0
M  V30 20 C 12.133634 5.166002 -16.673398 0
M  V30 21 C 10.061546 7.350025 -9.339331 0
M  V30 22 C 8.869738 5.623238 -8.219385 0
M  V30 23 C 9.997676 7.727266 -7.864799 0 CFG=1
M  V30 24 C 10.956588 4.459909 -17.011119 0
M  V30 25 O 16.760551 5.820395 -16.356508 0
M  V30 26 C 9.593473 5.065364 -16.734182 0
M  V30 27 C 12.300830 2.617576 -17.873759 0
M  V30 28 O 10.923169 6.790228 -12.150714 0
M  V30 29 H 7.250659 4.401942 -9.983613 0
M  V30 30 H 6.908907 5.517738 -11.301257 0
M  V30 31 H 7.731840 3.984042 -11.596579 0
M  V30 32 H 10.143591 2.652981 -17.868938 0
M  V30 33 H 9.775372 4.723053 -10.568291 0
M  V30 34 H 9.215546 6.500779 -6.229904 0
M  V30 35 H 10.654091 5.857841 -7.023265 0
M  V30 36 H 14.402529 6.246607 -16.081785 0
M  V30 37 H 14.416843 2.841055 -17.745812 0
M  V30 38 H 11.024243 6.887401 -9.560716 0
M  V30 39 H 9.933092 8.218664 -9.986265 0
M  V30 40 H 7.821850 5.590203 -7.918017 0
M  V30 41 H 9.220522 4.594008 -8.306352 0
M  V30 42 H 9.176557 8.425035 -7.687537 0
M  V30 43 H 9.704508 6.022745 -16.238120 0
M  V30 44 H 9.090834 5.250044 -17.684393 0
M  V30 45 H 12.361455 1.641462 -18.331639 0
M  V30 46 H 8.115850 6.929105 -9.585024 0
M  V30 END ATOM
M  V30 BEGIN BOND
M  V30 1 1 6 3
M  V30 2 1 8 1
M  V30 3 1 8 5
M  V30 4 1 9 4
M  V30 5 1 9 8
M  V30 6 1 12 3
M  V30 7 1 14 9
M  V30 8 1 18 2
M  V30 9 1 18 4
M  V30 10 2 18 13
M  V30 11 1 18 16
M  V30 12 1 19 12
M  V30 13 2 19 15
M  V30 14 1 20 10
M  V30 15 1 20 19
M  V30 16 1 21 5
M  V30 17 1 22 5
M  V30 18 1 22 11
M  V30 19 1 23 11
M  V30 20 1 23 17
M  V30 21 1 23 21
M  V30 22 1 24 7
M  V30 23 2 24 20
M  V30 24 2 25 3
M  V30 25 1 26 16
M  V30 26 1 26 24
M  V30 27 2 27 7
M  V30 28 1 27 15
M  V30 29 2 28 9
M  V30 30 1 29 1
M  V30 31 1 30 1
M  V30 32 1 31 1
M  V30 33 1 32 7
M  V30 34 1 8 33 CFG=1
M  V30 35 1 34 11
M  V30 36 1 35 11
M  V30 37 1 36 12
M  V30 38 1 37 15
M  V30 39 1 38 21
M  V30 40 1 39 21
M  V30 41 1 40 22
M  V30 42 1 41 22
M  V30 43 1 23 42 CFG=3
M  V30 44 1 43 26
M  V30 45 1 44 26
M  V30 46 1 45 27
M  V30 47 1 5 46 CFG=3
M  V30 END BOND
M  V30 END CTAB
M  END
>  <i_epik_Tot_Q>  (1) 
-2

>  <i_epik_Tot_abs_Q>  (1) 
4

>  <i_i_glide_confnum>  (1) 
378

>  <i_i_glide_lignum>  (1) 
96

>  <i_i_glide_posenum>  (1) 
23

>  <i_i_glide_rotatable_bonds>  (1) 
9

>  <i_lp_mmshare_version>  (1) 
72125

>  <i_m_source_file_index>  (1) 
62

>  <i_f3d_flags>  (1) 
0

>  <num_sample>  (1) 
100

>  <b_lp_Chiralities_Consistent>  (1) 
1

>  <r_epik_Charging_Adjusted_Penalty>  (1) 
0.22521151081801519

>  <r_epik_Ionization_Penalty>  (1) 
0.079461215956128484

>  <r_epik_Ionization_Penalty_Charging>  (1) 
0.079461215147622277

>  <r_epik_Ionization_Penalty_Neutral>  (1) 
8.0850620194651714e-10

>  <r_epik_State_Penalty>  (1) 
0.14575029567039291

>  <r_glide_ring_energy>  (1) 
0

>  <r_i_docking_score>  (1) 
-3.3099471044026987

>  <r_i_glide_ecoul>  (1) 
-9.4390755912594209

>  <r_i_glide_eff_state_penalty>  (1) 
0.14575029567039291

>  <r_i_glide_einternal>  (1) 
14.008878997805436

>  <r_i_glide_emodel>  (1) 
-41.595411907651723

>  <r_i_glide_emodel_strain>  (1) 
2.4476296594221765

>  <r_i_glide_energy>  (1) 
-40.510164109051892

>  <r_i_glide_erotb>  (1) 
0.71514179105455389

>  <r_i_glide_esite>  (1) 
-0.10000000000000001

>  <r_i_glide_evdw>  (1) 
-31.071088517792472

>  <r_i_glide_gscore>  (1) 
-3.4556974000730918

>  <r_i_glide_gscore_strain>  (1) 
0

>  <r_i_glide_hbond>  (1) 
-0.33286168980841241

>  <r_i_glide_ligand_efficiency>  (1) 
-0.11821239658581066

>  <r_i_glide_ligand_efficiency_ln>  (1) 
-0.76403297596604847

>  <r_i_glide_ligand_efficiency_sa>  (1) 
-0.35896245981146496

>  <r_i_glide_lipo>  (1) 
-0.2617478887380939

>  <r_i_glide_metal>  (1) 
-0

>  <r_i_glide_rewards>  (1) 
-0.5068138480026031

>  <r_lp_Energy>  (1) 
8.1711899999999993

>  <s_epik_cmdline>  (1) 
J2VwaWtfcHl0aG9uJywgJy1waHQnLCAnMS4wJywgJy1waCcsICc3LjQnLCAnLXRuJywgJzgnLCAnLW1hJywgJzUwMCcsICctaW1hZScsICc8aW5maWxlLm1hZT4nLCAnLW9tYWUnLCAnPG91dGZpbGUubWFlPic=

>  <s_epik_input>  (1) 
W0NIMl0xW0NIMl1bQ0BASF0oRilbQ0gyXU4xW0NAQEhdKFtDSDNdKVtQQF0oPU8pKFtPSF0pT1tQQEBdKD1PKShbT0hdKU9bQ0gyXWMoYzJGKVtjSF1bY0hdW2NIXWMyW05IXUMoPU8pW09IXQ==

>  <s_glide_docking_method>  (1) 
confgen

>  <s_i_glide_gridfile>  (1) 
gpcr_drd2_6luq_protein_autoprepared_prepared

>  <s_lp_Force_Field>  (1) 
S-OPLS

>  <s_lp_Variant>  (1) 
DiffSBDD_61-1

>  <s_m_source_file>  (1) 
generated_generic_title2_ligand_DiffSBDD_2026-06-23_prepared.sdf

>  <GenAI_Model>  (1) 
DiffSBDD

>  <Protein>  (1) 
generic_title2

$$$$
DiffSBDD_90
     RDKit          3D

  0  0  0  0  0  0  0  0  0  0999 V3000
M  V30 BEGIN CTAB
M  V30 COUNTS 80 84 0 0 1
M  V30 BEGIN ATOM
M  V30 1 C 7.936630 5.443028 -15.759411 0
M  V30 2 C 8.570281 4.280467 -14.971769 0 CFG=1
M  V30 3 C 8.592680 4.681666 -11.348744 0
M  V30 4 C 12.397930 4.191248 -18.156758 0 CFG=2
M  V30 5 C 7.018784 4.507477 -12.852433 0
M  V30 6 C 9.141140 4.863357 -10.024336 0 CFG=2
M  V30 7 C 8.809530 2.703777 -18.215664 0 CFG=2
M  V30 8 O 8.827815 5.588992 -18.033317 0
M  V30 9 C 7.882068 4.944620 -17.214359 0 CFG=1
M  V30 10 C 12.043716 6.322520 -16.649618 0
M  V30 11 O 14.775618 3.167596 -16.384693 0
M  V30 12 C 8.229161 4.421217 -13.520165 0
M  V30 13 C 6.958448 2.158648 -15.403508 0 CFG=2
M  V30 14 O 16.616261 4.390652 -16.783710 0 CHG=-1
M  V30 15 O 12.352804 4.793035 -19.312962 0 CHG=-1
M  V30 16 C 10.383806 2.620745 -18.235522 0 CFG=2
M  V30 17 N 10.972138 3.942837 -17.923656 0 CHG=1
M  V30 18 N 8.189104 3.515946 -17.147849 0
M  V30 19 C 14.386180 7.543784 -18.209159 0
M  V30 20 C 10.896158 2.044657 -19.592532 0
M  V30 21 O 6.593944 1.911560 -14.060630 0
M  V30 22 O 10.889435 0.631728 -19.592784 0
M  V30 23 O 7.692692 -0.537405 -16.654588 0
M  V30 24 C 8.313473 1.529844 -15.578789 0 CFG=1
M  V30 25 C 15.378059 4.207911 -16.732503 0
M  V30 26 C 8.188021 1.291747 -18.123179 0
M  V30 27 N 7.331023 4.661345 -11.533753 0
M  V30 28 O 13.456535 7.437250 -19.004487 0
M  V30 29 C 7.704326 4.851389 -9.311458 0
M  V30 30 N 9.188209 4.533103 -12.531269 0 CHG=1
M  V30 31 C 12.959873 5.139442 -17.053715 0 CFG=2
M  V30 32 O 11.170171 7.502818 -8.745701 0
M  V30 33 O 9.774977 6.127085 -9.934712 0
M  V30 34 C 10.252405 6.461380 -8.672544 0
M  V30 35 C 14.957330 8.921770 -17.888835 0
M  V30 36 C 14.506586 5.389008 -17.150217 0
M  V30 37 C 8.518535 0.601332 -16.778883 0 CFG=2
M  V30 38 C 10.584047 8.718799 -9.187901 0
M  V30 39 N 15.026824 6.511619 -17.536377 0
M  V30 40 C 6.513089 4.805887 -10.384786 0
M  V30 41 C 8.149493 3.040212 -15.781418 0 CFG=1
M  V30 42 H 6.908045 5.600198 -15.432291 0
M  V30 43 H 8.470682 6.382314 -15.586195 0
M  V30 44 H 9.652461 4.390088 -15.069988 0
M  V30 45 H 12.902917 3.235701 -18.023188 0
M  V30 46 H 5.999899 4.474558 -13.212281 0
M  V30 47 H 9.775949 4.011285 -9.775621 0
M  V30 48 H 8.493411 3.133851 -19.167766 0
M  V30 49 H 8.373204 6.162586 -18.634097 0
M  V30 50 H 6.890491 5.093970 -17.643037 0
M  V30 51 H 12.572753 7.074961 -16.063649 0
M  V30 52 H 11.596587 6.790859 -17.522687 0
M  V30 53 H 11.213492 5.980296 -16.033835 0
M  V30 54 H 6.175213 1.925391 -16.124438 0
M  V30 55 H 10.751467 1.989371 -17.427737 0
M  V30 56 H 10.491317 4.651286 -18.463235 0
M  V30 57 H 11.927771 2.306505 -19.819911 0
M  V30 58 H 10.299833 2.418482 -20.425992 0
M  V30 59 H 6.340450 1.001995 -13.985371 0
M  V30 60 H 11.638427 0.327233 -19.103336 0
M  V30 61 H 8.007342 -1.103124 -15.960216 0
M  V30 62 H 8.803880 1.190326 -14.666887 0
M  V30 63 H 7.106303 1.385139 -18.224754 0
M  V30 64 H 8.482497 0.659795 -18.959315 0
M  V30 65 H 7.611148 3.991370 -8.652457 0
M  V30 66 H 7.578601 5.694256 -8.639834 0
M  V30 67 H 12.859740 4.551743 -16.141559 0
M  V30 68 H 9.431366 6.742218 -8.010348 0
M  V30 69 H 10.768408 5.607000 -8.232664 0
M  V30 70 H 15.278241 9.409880 -18.809305 0
M  V30 71 H 14.185165 9.540638 -17.431671 0
M  V30 72 H 15.806888 8.873284 -17.207625 0
M  V30 73 H 9.551356 0.255504 -16.784805 0
M  V30 74 H 11.328372 9.517391 -9.188017 0
M  V30 75 H 10.190170 8.627323 -10.201654 0
M  V30 76 H 9.767350 9.016422 -8.528345 0
M  V30 77 H 5.955248 5.740216 -10.450610 0
M  V30 78 H 5.850097 3.946945 -10.282946 0
M  V30 79 H 10.192948 4.517490 -12.680613 0
M  V30 80 H 10.783359 4.135757 -16.954806 0
M  V30 END ATOM
M  V30 BEGIN BOND
M  V30 1 1 2 1
M  V30 2 1 6 3
M  V30 3 1 9 1
M  V30 4 1 9 8
M  V30 5 1 12 2
M  V30 6 2 12 5
M  V30 7 1 15 4
M  V30 8 1 16 7
M  V30 9 1 17 4
M  V30 10 1 17 16
M  V30 11 1 18 7
M  V30 12 1 18 9
M  V30 13 1 20 16
M  V30 14 1 21 13
M  V30 15 1 22 20
M  V30 16 1 24 13
M  V30 17 2 25 11
M  V30 18 1 25 14
M  V30 19 1 26 7
M  V30 20 1 27 3
M  V30 21 1 27 5
M  V30 22 2 28 19
M  V30 23 1 29 6
M  V30 24 2 30 3
M  V30 25 1 30 12
M  V30 26 1 31 4
M  V30 27 1 31 10
M  V30 28 1 33 6
M  V30 29 1 34 32
M  V30 30 1 34 33
M  V30 31 1 35 19
M  V30 32 1 36 25
M  V30 33 1 36 31
M  V30 34 1 37 23
M  V30 35 1 37 24
M  V30 36 1 37 26
M  V30 37 1 38 32
M  V30 38 1 39 19
M  V30 39 2 39 36
M  V30 40 1 40 27
M  V30 41 1 40 29
M  V30 42 1 41 2
M  V30 43 1 41 13
M  V30 44 1 41 18 CFG=3
M  V30 45 1 41 24
M  V30 46 1 42 1
M  V30 47 1 43 1
M  V30 48 1 2 44 CFG=1
M  V30 49 1 4 45 CFG=3
M  V30 50 1 46 5
M  V30 51 1 6 47 CFG=1
M  V30 52 1 7 48 CFG=3
M  V30 53 1 49 8
M  V30 54 1 9 50 CFG=3
M  V30 55 1 51 10
M  V30 56 1 52 10
M  V30 57 1 53 10
M  V30 58 1 13 54 CFG=3
M  V30 59 1 16 55 CFG=1
M  V30 60 1 56 17
M  V30 61 1 57 20
M  V30 62 1 58 20
M  V30 63 1 59 21
M  V30 64 1 60 22
M  V30 65 1 61 23
M  V30 66 1 24 62 CFG=1
M  V30 67 1 63 26
M  V30 68 1 64 26
M  V30 69 1 65 29
M  V30 70 1 66 29
M  V30 71 1 31 67 CFG=1
M  V30 72 1 68 34
M  V30 73 1 69 34
M  V30 74 1 70 35
M  V30 75 1 71 35
M  V30 76 1 72 35
M  V30 77 1 37 73 CFG=3
M  V30 78 1 74 38
M  V30 79 1 75 38
M  V30 80 1 76 38
M  V30 81 1 77 40
M  V30 82 1 78 40
M  V30 83 1 79 30
M  V30 84 1 80 17
M  V30 END BOND
M  V30 END CTAB
M  END
>  <i_epik_Tot_Q>  (1) 
0

>  <i_epik_Tot_abs_Q>  (1) 
4

>  <i_i_glide_confnum>  (1) 
2367

>  <i_i_glide_lignum>  (1) 
170

>  <i_i_glide_posenum>  (1) 
67

>  <i_i_glide_rotatable_bonds>  (1) 
16

>  <i_lp_mmshare_version>  (1) 
72125

>  <i_m_source_file_index>  (1) 
91

>  <i_f3d_flags>  (1) 
0

>  <num_sample>  (1) 
100

>  <b_lp_Chiralities_Consistent>  (1) 
1

>  <r_epik_Charging_Adjusted_Penalty>  (1) 
1.4758035429533554

>  <r_epik_Ionization_Penalty>  (1) 
0.33648449588267881

>  <r_epik_Ionization_Penalty_Charging>  (1) 
0.24231300703988756

>  <r_epik_Ionization_Penalty_Neutral>  (1) 
0.094171488842791265

>  <r_epik_State_Penalty>  (1) 
1.2334905359134678

>  <r_glide_ring_energy>  (1) 
0

>  <r_i_docking_score>  (1) 
-3.3043491033105763

>  <r_i_glide_ecoul>  (1) 
-9.8157869868380541

>  <r_i_glide_eff_state_penalty>  (1) 
1.2334905359134678

>  <r_i_glide_einternal>  (1) 
13.633482041086371

>  <r_i_glide_emodel>  (1) 
-47.061636285361708

>  <r_i_glide_emodel_strain>  (1) 
3.5317115560067691

>  <r_i_glide_energy>  (1) 
-44.587245507873476

>  <r_i_glide_erotb>  (1) 
0.57888693115673628

>  <r_i_glide_esite>  (1) 
-0.049944445278029458

>  <r_i_glide_evdw>  (1) 
-34.77145852103542

>  <r_i_glide_gscore>  (1) 
-4.5378396392240443

>  <r_i_glide_gscore_strain>  (1) 
0

>  <r_i_glide_hbond>  (1) 
-0.29852640039880823

>  <r_i_glide_ligand_efficiency>  (1) 
-0.080593880568550644

>  <r_i_glide_ligand_efficiency_ln>  (1) 
-0.70102865863700492

>  <r_i_glide_ligand_efficiency_sa>  (1) 
-0.27790520844582306

>  <r_i_glide_lipo>  (1) 
-1.0944218009637832

>  <r_i_glide_metal>  (1) 
-0

>  <r_i_glide_rewards>  (1) 
-0.46289294966268124

>  <r_lp_Energy>  (1) 
63.663981999999997

>  <s_epik_Chemistry_Notes>  (1) 
This compound has an imine and may undergo hydrolysis. This compound contains an acetal/aminal-like group ( X-CH(R)-Y where X, Y are N, S, or O) that may be acid/base labile, releasing an aldehyde.

>  <s_epik_cmdline>  (1) 
J2VwaWtfcHl0aG9uJywgJy1waHQnLCAnMS4wJywgJy1waCcsICc3LjQnLCAnLXRuJywgJzgnLCAnLW1hJywgJzUwMCcsICctaW1hZScsICc8aW5maWxlLm1hZT4nLCAnLW9tYWUnLCAnPG91dGZpbGUubWFlPic=

>  <s_epik_input>  (1) 
W0NIM11PW0NIMl1PW0NASF0xW0NIMl1bQ0gyXW4oYzEyKVtjSF1jKG4yKVtDQEBIXTNbQ0gyXVtDQEBIXShbT0hdKU4oW0NAQF0zNDUpW0NASF0oW0NIMl1bQ0BIXShbT0hdKVtDQEBIXTVbQ0BIXTRbT0hdKVtDQEBIXShbQ0gyXVtPSF0pW05IXVtDQEBIXShbT0hdKVtDQEhdKFtDSDNdKUMoXEMoPU8pW09IXSk9Ti9DKD1PKVtDSDNd

>  <s_glide_docking_method>  (1) 
confgen

>  <s_i_glide_gridfile>  (1) 
gpcr_drd2_6luq_protein_autoprepared_prepared

>  <s_lp_Force_Field>  (1) 
S-OPLS

>  <s_lp_Variant>  (1) 
DiffSBDD_90-5

>  <s_m_source_file>  (1) 
generated_generic_title2_ligand_DiffSBDD_2026-06-23_prepared.sdf

>  <GenAI_Model>  (1) 
DiffSBDD

>  <Protein>  (1) 
generic_title2

$$$$
DiffSBDD_94
     RDKit          3D

  0  0  0  0  0  0  0  0  0  0999 V3000
M  V30 BEGIN CTAB
M  V30 COUNTS 65 69 0 0 1
M  V30 BEGIN ATOM
M  V30 1 C 9.168190 7.299160 -20.552430 0
M  V30 2 C 8.649751 3.334902 -18.170271 0
M  V30 3 O 7.598246 7.859569 -11.985025 0
M  V30 4 C 9.428047 6.360029 -19.372914 0
M  V30 5 C 6.983876 6.810730 -12.702141 0 CFG=1
M  V30 6 N 4.575406 5.104700 -21.736679 0
M  V30 7 C 4.605328 4.970070 -20.386807 0
M  V30 8 C 8.784805 6.569549 -21.830935 0 CFG=2
M  V30 9 C 5.647010 7.174442 -21.525070 0
M  V30 10 C 7.451884 5.415495 -12.319590 0 CFG=1
M  V30 11 Cl 9.519790 4.706649 -23.651585 0
M  V30 12 C 6.108925 5.931581 -11.843749 0
M  V30 13 C 6.239538 8.375636 -22.253623 0 CFG=2
M  V30 14 C 9.863331 4.673172 -17.099544 0
M  V30 15 C 9.948537 4.079682 -18.520937 0
M  V30 16 C 9.890837 5.548614 -22.118540 0 CFG=2
M  V30 17 C 7.811356 4.921910 -14.790627 0 CFG=1
M  V30 18 C 5.112048 9.241951 -22.839563 0
M  V30 19 C 5.152970 5.942696 -19.536348 0
M  V30 20 O 10.378180 3.370294 -21.211041 0
M  V30 21 N 5.087536 6.212227 -22.306093 0
M  V30 22 N 8.442294 4.340749 -17.130829 0
M  V30 23 C 7.553708 4.335761 -13.386623 0
M  V30 24 N 9.817786 4.972432 -19.702692 0
M  V30 25 F 8.451105 5.334604 -11.364636 0
M  V30 26 C 7.934556 3.813335 -15.866880 0
M  V30 27 C 5.693578 7.085424 -20.125054 0
M  V30 28 C 6.673949 7.190174 -14.139025 0
M  V30 29 O 6.053575 5.957450 -16.107339 0
M  V30 30 C 10.049498 4.530595 -20.966218 0
M  V30 31 C 7.264281 7.963076 -23.350528 0
M  V30 32 C 6.771321 6.017642 -15.111390 0
M  V30 33 N 8.632838 7.565277 -22.920434 0 CHG=1
M  V30 34 H 10.061566 7.902119 -20.725888 0
M  V30 35 H 8.377901 7.990225 -20.283088 0
M  V30 36 H 8.811589 2.347387 -17.734375 0
M  V30 37 H 7.849177 3.366341 -18.910202 0
M  V30 38 H 7.375422 7.781935 -11.050148 0
M  V30 39 H 8.516342 6.342901 -18.775798 0
M  V30 40 H 10.210512 6.809631 -18.764028 0
M  V30 41 H 4.179324 4.064631 -19.985018 0
M  V30 42 H 7.867423 5.999640 -21.703091 0
M  V30 43 H 6.012103 6.162945 -10.785037 0
M  V30 44 H 5.218893 5.508480 -12.302603 0
M  V30 45 H 6.756022 9.002443 -21.526071 0
M  V30 46 H 10.018880 5.739271 -16.946559 0
M  V30 47 H 10.386141 4.067882 -16.356898 0
M  V30 48 H 10.796947 3.397507 -18.600189 0
M  V30 49 H 10.851680 6.045499 -22.259197 0
M  V30 50 H 8.771988 5.434936 -14.739334 0
M  V30 51 H 4.415559 9.558004 -22.061736 0
M  V30 52 H 5.507013 10.142476 -23.310225 0
M  V30 53 H 4.541741 8.697404 -23.593683 0
M  V30 54 H 5.159218 5.808096 -18.465907 0
M  V30 55 H 6.635587 3.746319 -13.385346 0
M  V30 56 H 8.358594 3.651067 -13.115293 0
M  V30 57 H 8.575400 3.007447 -15.509982 0
M  V30 58 H 6.958738 3.363393 -16.044937 0
M  V30 59 H 6.136471 7.866208 -19.526137 0
M  V30 60 H 5.672723 7.617056 -14.185673 0
M  V30 61 H 7.375297 7.957635 -14.466822 0
M  V30 62 H 7.421178 8.819535 -24.003587 0
M  V30 63 H 6.850790 7.175587 -23.978846 0
M  V30 64 H 9.145316 8.398785 -22.667226 0
M  V30 65 H 9.075417 7.172678 -23.740795 0
M  V30 END ATOM
M  V30 BEGIN BOND
M  V30 1 1 4 1
M  V30 2 1 5 3 CFG=1
M  V30 3 1 7 6
M  V30 4 1 8 1
M  V30 5 1 10 5
M  V30 6 1 12 5
M  V30 7 1 12 10
M  V30 8 1 13 9
M  V30 9 1 15 2
M  V30 10 1 15 14
M  V30 11 1 16 8
M  V30 12 1 16 11
M  V30 13 1 18 13
M  V30 14 2 19 7
M  V30 15 2 21 6
M  V30 16 1 21 9
M  V30 17 1 22 2
M  V30 18 1 22 14
M  V30 19 1 23 10
M  V30 20 1 23 17
M  V30 21 1 24 4
M  V30 22 1 24 15
M  V30 23 1 10 25 CFG=1
M  V30 24 1 26 17
M  V30 25 1 26 22
M  V30 26 2 27 9
M  V30 27 1 27 19
M  V30 28 1 28 5
M  V30 29 1 30 16
M  V30 30 2 30 20
M  V30 31 1 30 24
M  V30 32 1 31 13
M  V30 33 1 32 17
M  V30 34 1 32 28
M  V30 35 2 32 29
M  V30 36 1 33 8
M  V30 37 1 33 31
M  V30 38 1 34 1
M  V30 39 1 35 1
M  V30 40 1 36 2
M  V30 41 1 37 2
M  V30 42 1 38 3
M  V30 43 1 39 4
M  V30 44 1 40 4
M  V30 45 1 41 7
M  V30 46 1 8 42 CFG=1
M  V30 47 1 43 12
M  V30 48 1 44 12
M  V30 49 1 13 45 CFG=1
M  V30 50 1 46 14
M  V30 51 1 47 14
M  V30 52 1 48 15
M  V30 53 1 16 49 CFG=3
M  V30 54 1 17 50 CFG=1
M  V30 55 1 51 18
M  V30 56 1 52 18
M  V30 57 1 53 18
M  V30 58 1 54 19
M  V30 59 1 55 23
M  V30 60 1 56 23
M  V30 61 1 57 26
M  V30 62 1 58 26
M  V30 63 1 59 27
M  V30 64 1 60 28
M  V30 65 1 61 28
M  V30 66 1 62 31
M  V30 67 1 63 31
M  V30 68 1 64 33
M  V30 69 1 65 33
M  V30 END BOND
M  V30 END CTAB
M  END
>  <i_epik_Tot_Q>  (1) 
1

>  <i_epik_Tot_abs_Q>  (1) 
1

>  <i_i_glide_confnum>  (1) 
190

>  <i_i_glide_lignum>  (1) 
180

>  <i_i_glide_posenum>  (1) 
177

>  <i_i_glide_rotatable_bonds>  (1) 
8

>  <i_lp_mmshare_version>  (1) 
72125

>  <i_m_source_file_index>  (1) 
95

>  <i_f3d_flags>  (1) 
0

>  <num_sample>  (1) 
100

>  <b_lp_Chiralities_Consistent>  (1) 
1

>  <r_epik_Charging_Adjusted_Penalty>  (1) 
0.72185146143454548

>  <r_epik_Ionization_Penalty>  (1) 
0.57657023161056387

>  <r_epik_Ionization_Penalty_Charging>  (1) 
0.10328520629071786

>  <r_epik_Ionization_Penalty_Neutral>  (1) 
0.47328502531984601

>  <r_epik_State_Penalty>  (1) 
0.61856625514382757

>  <r_glide_ring_energy>  (1) 
0.0061965750696256084

>  <r_i_docking_score>  (1) 
-3.2872016301764209

>  <r_i_glide_ecoul>  (1) 
-7.0506684125649084

>  <r_i_glide_eff_state_penalty>  (1) 
0.61856625514382757

>  <r_i_glide_einternal>  (1) 
6.4670984285579216

>  <r_i_glide_emodel>  (1) 
-37.83281417561637

>  <r_i_glide_emodel_strain>  (1) 
1.6852019458785321

>  <r_i_glide_energy>  (1) 
-32.154776746162632

>  <r_i_glide_erotb>  (1) 
0.52602338862990483

>  <r_i_glide_esite>  (1) 
-0.0075963876189739281

>  <r_i_glide_evdw>  (1) 
-25.104108333597722

>  <r_i_glide_gscore>  (1) 
-3.9057678853202482

>  <r_i_glide_gscore_strain>  (1) 
0

>  <r_i_glide_hbond>  (1) 
-0.16

>  <r_i_glide_ligand_efficiency>  (1) 
-0.099612170611406689

>  <r_i_glide_ligand_efficiency_ln>  (1) 
-0.73105662233209745

>  <r_i_glide_ligand_efficiency_sa>  (1) 
-0.31950945692148836

>  <r_i_glide_lipo>  (1) 
-1.2912468055385802

>  <r_i_glide_metal>  (1) 
-0

>  <r_i_glide_rewards>  (1) 
-0.66014240222797593

>  <r_lp_Energy>  (1) 
45.717675

>  <r_lp_tautomer_probability>  (1) 
0.99999998000000001

>  <s_epik_cmdline>  (1) 
J2VwaWtfcHl0aG9uJywgJy1waHQnLCAnMS4wJywgJy1waCcsICc3LjQnLCAnLXRuJywgJzgnLCAnLW1hJywgJzUwMCcsICctaW1hZScsICc8aW5maWxlLm1hZT4nLCAnLW9tYWUnLCAnPG91dGZpbGUubWFlPic=

>  <s_epik_input>  (1) 
W2NIXTFbY0hdW2NIXW5uYzFbQ0BIXShbQ0gzXSlbQ0gyXVtOSF1bQ0BASF0yW0NIMl1bQ0gyXU4oQyg9TylbQ0BIXTJDbClbQ0hdM1tDSDJdTihbQ0gyXTMpW0NIMl1bQ0BASF0oQyg9TylbQ0gyXTQpW0NIMl1bQ0BdKEYpKFtDSDJdNSlbQ0BAXTQ1W09IXQ==

>  <s_glide_docking_method>  (1) 
confgen

>  <s_i_glide_gridfile>  (1) 
gpcr_drd2_6luq_protein_autoprepared_prepared

>  <s_lp_Force_Field>  (1) 
S-OPLS

>  <s_lp_Variant>  (1) 
DiffSBDD_94-3

>  <s_m_source_file>  (1) 
generated_generic_title2_ligand_DiffSBDD_2026-06-23_prepared.sdf

>  <GenAI_Model>  (1) 
DiffSBDD

>  <Protein>  (1) 
generic_title2

$$$$
DiffSBDD_94
     RDKit          3D

  0  0  0  0  0  0  0  0  0  0999 V3000
M  V30 BEGIN CTAB
M  V30 COUNTS 65 69 0 0 1
M  V30 BEGIN ATOM
M  V30 1 C 9.003538 4.185648 -11.565892 0
M  V30 2 C 9.142143 5.183498 -15.850195 0
M  V30 3 O 8.527754 -2.318885 -17.585020 0
M  V30 4 C 9.148957 4.800067 -12.968800 0
M  V30 5 C 7.934421 -1.039540 -17.578285 0 CFG=1
M  V30 6 N 10.552273 8.330488 -5.584997 0
M  V30 7 C 11.642280 9.106362 -5.380988 0
M  V30 8 C 8.195520 5.090526 -10.638449 0 CFG=2
M  V30 9 C 11.186649 8.006401 -7.800360 0
M  V30 10 C 8.179506 -0.230007 -18.831289 0 CFG=1
M  V30 11 Cl 5.775525 3.990182 -11.183524 0
M  V30 12 C 6.846231 -0.926599 -18.612653 0
M  V30 13 C 10.829265 7.404003 -9.163055 0 CFG=2
M  V30 14 C 7.083928 4.991392 -15.804024 0
M  V30 15 C 8.054328 5.823168 -14.961472 0 CFG=1
M  V30 16 C 6.842209 5.407546 -11.308808 0 CFG=2
M  V30 17 C 8.472963 1.895125 -17.364828 0 CFG=1
M  V30 18 C 10.534045 8.546762 -10.139381 0
M  V30 19 C 12.575410 9.366442 -6.385456 0
M  V30 20 O 5.921729 6.450038 -13.262900 0
M  V30 21 N 10.308481 7.791065 -6.791174 0
M  V30 22 N 8.199288 4.088098 -16.083256 0 CFG=1 CHG=1
M  V30 23 C 8.275067 1.285962 -18.779689 0
M  V30 24 N 7.956905 5.482986 -13.520242 0
M  V30 25 F 8.984656 -0.790137 -19.808456 0
M  V30 26 C 8.187117 3.423910 -17.412433 0
M  V30 27 C 12.346709 8.789816 -7.642488 0
M  V30 28 C 7.886228 -0.389356 -16.211114 0
M  V30 29 O 6.975452 1.705217 -15.464765 0
M  V30 30 C 6.873224 5.831322 -12.783729 0
M  V30 31 C 9.725417 6.296153 -9.146954 0
M  V30 32 C 7.698952 1.124605 -16.269484 0
M  V30 33 N 8.975410 6.298015 -10.398804 0
M  V30 34 H 9.985656 3.990340 -11.143900 0
M  V30 35 H 8.537321 3.203150 -11.657191 0
M  V30 36 H 10.093344 4.905474 -15.398487 0
M  V30 37 H 9.323854 5.771172 -16.752099 0
M  V30 38 H 8.178752 -2.810009 -16.849834 0
M  V30 39 H 9.464368 3.990072 -13.608956 0
M  V30 40 H 9.965649 5.523363 -12.953737 0
M  V30 41 H 11.766033 9.521119 -4.390270 0
M  V30 42 H 8.003415 4.594271 -9.686635 0
M  V30 43 H 6.632240 -1.799337 -19.227458 0
M  V30 44 H 5.981897 -0.309976 -18.372829 0
M  V30 45 H 11.739210 6.928671 -9.527015 0
M  V30 46 H 6.723247 5.526878 -16.685211 0
M  V30 47 H 6.266178 4.516809 -15.260266 0
M  V30 48 H 7.903723 6.884206 -15.147296 0
M  V30 49 H 6.326496 6.206056 -10.783283 0
M  V30 50 H 9.522709 1.764016 -17.099187 0
M  V30 51 H 11.384403 9.222874 -10.180381 0
M  V30 52 H 10.382816 8.206550 -11.165085 0
M  V30 53 H 9.648812 9.104293 -9.830764 0
M  V30 54 H 13.441212 9.986357 -6.200223 0
M  V30 55 H 7.375729 1.687351 -19.248196 0
M  V30 56 H 9.105586 1.595347 -19.415053 0
M  V30 57 H 8.907732 3.907815 -18.072978 0
M  V30 58 H 7.210806 3.580795 -17.874080 0
M  V30 59 H 13.026430 8.954922 -8.465774 0
M  V30 60 H 7.065205 -0.811429 -15.633222 0
M  V30 61 H 8.806537 -0.616178 -15.675626 0
M  V30 62 H 8.980500 6.464256 -8.366962 0
M  V30 63 H 10.174657 5.321703 -8.952463 0
M  V30 64 H 8.296086 7.050591 -10.250016 0
M  V30 65 H 8.233365 3.406989 -15.336122 0
M  V30 END ATOM
M  V30 BEGIN BOND
M  V30 1 1 4 1
M  V30 2 1 5 3 CFG=1
M  V30 3 1 7 6
M  V30 4 1 8 1
M  V30 5 1 10 5
M  V30 6 1 12 5
M  V30 7 1 12 10
M  V30 8 1 13 9
M  V30 9 1 15 2
M  V30 10 1 15 14
M  V30 11 1 16 8
M  V30 12 1 16 11
M  V30 13 1 18 13
M  V30 14 2 19 7
M  V30 15 2 21 6
M  V30 16 1 21 9
M  V30 17 1 22 2
M  V30 18 1 22 14
M  V30 19 1 23 10
M  V30 20 1 23 17
M  V30 21 1 24 4
M  V30 22 1 24 15
M  V30 23 1 10 25 CFG=3
M  V30 24 1 26 17
M  V30 25 1 26 22
M  V30 26 2 27 9
M  V30 27 1 27 19
M  V30 28 1 28 5
M  V30 29 1 30 16
M  V30 30 2 30 20
M  V30 31 1 30 24
M  V30 32 1 31 13
M  V30 33 1 32 17
M  V30 34 1 32 28
M  V30 35 2 32 29
M  V30 36 1 33 8
M  V30 37 1 33 31
M  V30 38 1 34 1
M  V30 39 1 35 1
M  V30 40 1 36 2
M  V30 41 1 37 2
M  V30 42 1 38 3
M  V30 43 1 39 4
M  V30 44 1 40 4
M  V30 45 1 41 7
M  V30 46 1 8 42 CFG=1
M  V30 47 1 43 12
M  V30 48 1 44 12
M  V30 49 1 13 45 CFG=3
M  V30 50 1 46 14
M  V30 51 1 47 14
M  V30 52 1 15 48 CFG=1
M  V30 53 1 16 49 CFG=1
M  V30 54 1 17 50 CFG=1
M  V30 55 1 51 18
M  V30 56 1 52 18
M  V30 57 1 53 18
M  V30 58 1 54 19
M  V30 59 1 55 23
M  V30 60 1 56 23
M  V30 61 1 57 26
M  V30 62 1 58 26
M  V30 63 1 59 27
M  V30 64 1 60 28
M  V30 65 1 61 28
M  V30 66 1 62 31
M  V30 67 1 63 31
M  V30 68 1 64 33
M  V30 69 1 22 65 CFG=1
M  V30 END BOND
M  V30 END CTAB
M  END
>  <i_epik_Tot_Q>  (1) 
1

>  <i_epik_Tot_abs_Q>  (1) 
1

>  <i_i_glide_confnum>  (1) 
520

>  <i_i_glide_lignum>  (1) 
181

>  <i_i_glide_posenum>  (1) 
249

>  <i_i_glide_rotatable_bonds>  (1) 
8

>  <i_lp_mmshare_version>  (1) 
72125

>  <i_m_source_file_index>  (1) 
95

>  <i_f3d_flags>  (1) 
0

>  <num_sample>  (1) 
100

>  <b_lp_Chiralities_Consistent>  (1) 
1

>  <r_epik_Charging_Adjusted_Penalty>  (1) 
1.4532026091556733

>  <r_epik_Ionization_Penalty>  (1) 
1.1658176113502041

>  <r_epik_Ionization_Penalty_Charging>  (1) 
0.22723193656236854

>  <r_epik_Ionization_Penalty_Neutral>  (1) 
0.93858567478783561

>  <r_epik_State_Penalty>  (1) 
1.2259706725933048

>  <r_glide_ring_energy>  (1) 
1.3165782718524921

>  <r_i_docking_score>  (1) 
-3.2845283492166111

>  <r_i_glide_ecoul>  (1) 
-9.2083862193523878

>  <r_i_glide_eff_state_penalty>  (1) 
1.2259706725933048

>  <r_i_glide_einternal>  (1) 
16.138890847353771

>  <r_i_glide_emodel>  (1) 
-38.849993974969976

>  <r_i_glide_emodel_strain>  (1) 
8.3533562065131406

>  <r_i_glide_energy>  (1) 
-43.26007826210153

>  <r_i_glide_erotb>  (1) 
0.52602338862990483

>  <r_i_glide_esite>  (1) 
-0.010933709696623066

>  <r_i_glide_evdw>  (1) 
-34.051692042749146

>  <r_i_glide_gscore>  (1) 
-4.5104990218099159

>  <r_i_glide_gscore_strain>  (1) 
1.0883390516282851

>  <r_i_glide_hbond>  (1) 
-0.45102176181383696

>  <r_i_glide_ligand_efficiency>  (1) 
-0.099531162097473064

>  <r_i_glide_ligand_efficiency_ln>  (1) 
-0.73046209848814381

>  <r_i_glide_ligand_efficiency_sa>  (1) 
-0.31924961933202428

>  <r_i_glide_lipo>  (1) 
-1.8524797573195648

>  <r_i_glide_metal>  (1) 
-0

>  <r_i_glide_rewards>  (1) 
-0.72658369819776658

>  <r_lp_Energy>  (1) 
64.001239999999996

>  <s_epik_cmdline>  (1) 
J2VwaWtfcHl0aG9uJywgJy1waHQnLCAnMS4wJywgJy1waCcsICc3LjQnLCAnLXRuJywgJzgnLCAnLW1hJywgJzUwMCcsICctaW1hZScsICc8aW5maWxlLm1hZT4nLCAnLW9tYWUnLCAnPG91dGZpbGUubWFlPic=

>  <s_epik_input>  (1) 
W2NIXTFbY0hdW2NIXW5uYzFbQ0BIXShbQ0gzXSlbQ0gyXVtOSF1bQ0BASF0yW0NIMl1bQ0gyXU4oQyg9TylbQ0BIXTJDbClbQ0hdM1tDSDJdTihbQ0gyXTMpW0NIMl1bQ0BASF0oQyg9TylbQ0gyXTQpW0NIMl1bQ0BdKEYpKFtDSDJdNSlbQ0BAXTQ1W09IXQ==

>  <s_glide_docking_method>  (1) 
confgen

>  <s_i_glide_gridfile>  (1) 
gpcr_drd2_6luq_protein_autoprepared_prepared

>  <s_lp_Force_Field>  (1) 
S-OPLS

>  <s_lp_Variant>  (1) 
DiffSBDD_94-4

>  <s_m_source_file>  (1) 
generated_generic_title2_ligand_DiffSBDD_2026-06-23_prepared.sdf

>  <GenAI_Model>  (1) 
DiffSBDD

>  <Protein>  (1) 
generic_title2

$$$$
DiffSBDD_30
     RDKit          3D

  0  0  0  0  0  0  0  0  0  0999 V3000
M  V30 BEGIN CTAB
M  V30 COUNTS 40 40 0 0 1
M  V30 BEGIN ATOM
M  V30 1 C 11.375451 8.198830 -5.247505 0
M  V30 2 C 9.375219 5.952128 -9.864592 0
M  V30 3 C 9.992069 8.031178 -8.665958 0
M  V30 4 N 7.005259 7.327391 -11.985708 0 CHG=1
M  V30 5 C 11.784770 9.271719 -4.431310 0
M  V30 6 C 6.289398 5.575590 -13.595787 0
M  V30 7 C 10.610404 7.388077 -7.412655 0
M  V30 8 N 9.901912 7.190432 -9.864136 0
M  V30 9 C 6.285478 6.053708 -12.135591 0 CFG=1
M  V30 10 O 8.967095 5.390768 -8.848916 0
M  V30 11 C 12.191449 9.037693 -3.103501 0
M  V30 12 C 11.375233 6.879909 -4.722570 0
M  V30 13 C 6.787694 4.994751 -11.129703 0
M  V30 14 C 9.296010 5.243502 -11.228458 0
M  V30 15 C 12.187266 7.729965 -2.585075 0
M  V30 16 C 11.776881 6.653297 -3.392282 0
M  V30 17 O 10.978882 8.453674 -6.544480 0
M  V30 18 N 8.094432 4.411931 -11.453123 0
M  V30 19 H 9.003927 8.425192 -8.424253 0
M  V30 20 H 10.597934 8.892177 -8.949296 0
M  V30 21 H 7.965858 7.198495 -12.259084 0
M  V30 22 H 6.570689 8.047523 -12.540350 0
M  V30 23 H 11.785628 10.276888 -4.825784 0
M  V30 24 H 5.731494 4.644481 -13.702093 0
M  V30 25 H 5.826933 6.311474 -14.254186 0
M  V30 26 H 7.302274 5.395410 -13.957797 0
M  V30 27 H 11.488220 6.790820 -7.662906 0
M  V30 28 H 9.865271 6.747937 -6.940542 0
M  V30 29 H 10.228348 7.582293 -10.733789 0
M  V30 30 H 5.251807 6.272417 -11.865394 0
M  V30 31 H 12.505312 9.863214 -2.481336 0
M  V30 32 H 11.066531 6.045377 -5.332068 0
M  V30 33 H 6.081149 4.163823 -11.150160 0
M  V30 34 H 6.736019 5.367084 -10.106006 0
M  V30 35 H 9.369316 5.979109 -12.029066 0
M  V30 36 H 10.172396 4.605193 -11.343884 0
M  V30 37 H 12.498505 7.552529 -1.567986 0
M  V30 38 H 11.773936 5.649875 -2.991771 0
M  V30 39 H 8.180947 3.555209 -10.921435 0
M  V30 40 H 6.975487 7.590206 -10.988664 0
M  V30 END ATOM
M  V30 BEGIN BOND
M  V30 1 2 5 1
M  V30 2 1 7 3
M  V30 3 1 8 2
M  V30 4 1 8 3
M  V30 5 1 9 4
M  V30 6 1 9 6
M  V30 7 2 10 2
M  V30 8 1 11 5
M  V30 9 1 12 1
M  V30 10 1 13 9
M  V30 11 1 14 2
M  V30 12 2 15 11
M  V30 13 2 16 12
M  V30 14 1 16 15
M  V30 15 1 17 1
M  V30 16 1 17 7
M  V30 17 1 18 13
M  V30 18 1 18 14
M  V30 19 1 19 3
M  V30 20 1 20 3
M  V30 21 1 21 4
M  V30 22 1 22 4
M  V30 23 1 23 5
M  V30 24 1 24 6
M  V30 25 1 25 6
M  V30 26 1 26 6
M  V30 27 1 27 7
M  V30 28 1 28 7
M  V30 29 1 29 8
M  V30 30 1 9 30 CFG=1
M  V30 31 1 31 11
M  V30 32 1 32 12
M  V30 33 1 33 13
M  V30 34 1 34 13
M  V30 35 1 35 14
M  V30 36 1 36 14
M  V30 37 1 37 15
M  V30 38 1 38 16
M  V30 39 1 39 18
M  V30 40 1 40 4
M  V30 END BOND
M  V30 END CTAB
M  END
>  <i_epik_Tot_Q>  (1) 
1

>  <i_epik_Tot_abs_Q>  (1) 
1

>  <i_i_glide_confnum>  (1) 
166

>  <i_i_glide_lignum>  (1) 
51

>  <i_i_glide_posenum>  (1) 
378

>  <i_i_glide_rotatable_bonds>  (1) 
9

>  <i_lp_mmshare_version>  (1) 
72125

>  <i_m_source_file_index>  (1) 
31

>  <i_f3d_flags>  (1) 
0

>  <num_sample>  (1) 
100

>  <b_lp_Chiralities_Consistent>  (1) 
1

>  <r_epik_Charging_Adjusted_Penalty>  (1) 
0.039337521643073213

>  <r_epik_Ionization_Penalty>  (1) 
0.013279431624003777

>  <r_epik_Ionization_Penalty_Charging>  (1) 
0.0075602006563197741

>  <r_epik_Ionization_Penalty_Neutral>  (1) 
0.0057192309676840029

>  <r_epik_State_Penalty>  (1) 
0.031777320986753441

>  <r_glide_ring_energy>  (1) 
0

>  <r_i_docking_score>  (1) 
-3.2798201173998827

>  <r_i_glide_ecoul>  (1) 
-7.4683296083533532

>  <r_i_glide_eff_state_penalty>  (1) 
0.031777320986753441

>  <r_i_glide_einternal>  (1) 
2.3483243936442637

>  <r_i_glide_emodel>  (1) 
-48.298346965294101

>  <r_i_glide_emodel_strain>  (1) 
0.7428774942986589

>  <r_i_glide_energy>  (1) 
-38.360542553712655

>  <r_i_glide_erotb>  (1) 
3.8578777710225149

>  <r_i_glide_esite>  (1) 
-0.26087472556595553

>  <r_i_glide_evdw>  (1) 
-30.892212945359301

>  <r_i_glide_gscore>  (1) 
-3.3115974383866362

>  <r_i_glide_gscore_strain>  (1) 
0

>  <r_i_glide_hbond>  (1) 
-0.20000000000000001

>  <r_i_glide_ligand_efficiency>  (1) 
-0.18221222874443793

>  <r_i_glide_ligand_efficiency_ln>  (1) 
-0.84306084906742795

>  <r_i_glide_ligand_efficiency_sa>  (1) 
-0.47753113040160866

>  <r_i_glide_lipo>  (1) 
-2.0823485014641703

>  <r_i_glide_metal>  (1) 
-0

>  <r_i_glide_rewards>  (1) 
-1.9613918938580579

>  <r_lp_Energy>  (1) 
19.421258999999999

>  <r_lp_tautomer_probability>  (1) 
1

>  <s_epik_cmdline>  (1) 
J2VwaWtfcHl0aG9uJywgJy1waHQnLCAnMS4wJywgJy1waCcsICc3LjQnLCAnLXRuJywgJzgnLCAnLW1hJywgJzUwMCcsICctaW1hZScsICc8aW5maWxlLm1hZT4nLCAnLW9tYWUnLCAnPG91dGZpbGUubWFlPic=

>  <s_epik_input>  (1) 
W2NIXTFbY0hdW2NIXVtjSF1bY0hdYzFPW0NIMl1bQ0gyXVtOSF1DKD1PKVtDSDJdW05IXVtDSDJdW0NAQEhdKFtOSDJdKVtDSDNd

>  <s_glide_docking_method>  (1) 
confgen

>  <s_i_glide_gridfile>  (1) 
gpcr_drd2_6luq_protein_autoprepared_prepared

>  <s_lp_Force_Field>  (1) 
S-OPLS

>  <s_lp_Variant>  (1) 
DiffSBDD_30-1

>  <s_m_source_file>  (1) 
generated_generic_title2_ligand_DiffSBDD_2026-06-23_prepared.sdf

>  <GenAI_Model>  (1) 
DiffSBDD

>  <Protein>  (1) 
generic_title2

$$$$
DiffSBDD_61
     RDKit          3D

  0  0  0  0  0  0  0  0  0  0999 V3000
M  V30 BEGIN CTAB
M  V30 COUNTS 46 47 0 0 1
M  V30 BEGIN ATOM
M  V30 1 C 7.775561 4.941315 -9.980875 0
M  V30 2 O 6.016759 4.078680 -12.554881 0 CHG=-1
M  V30 3 C 8.283696 -0.558278 -19.273986 0
M  V30 4 O 8.568524 4.609969 -12.866185 0
M  V30 5 N 9.375398 6.788773 -9.465513 0 CFG=1 CHG=1
M  V30 6 O 9.304610 -0.403353 -19.977186 0 CHG=-1
M  V30 7 C 5.137414 -0.009801 -15.123680 0
M  V30 8 C 9.106381 5.619243 -10.352555 0 CFG=2
M  V30 9 P 9.054069 6.104762 -12.182282 0
M  V30 10 F 8.575416 1.190071 -15.578712 0
M  V30 11 C 11.190340 8.116249 -8.529484 0
M  V30 12 N 8.233175 0.079867 -18.076410 0
M  V30 13 O 6.996328 4.251252 -14.915278 0
M  V30 14 O 8.028172 7.149830 -12.385002 0 CHG=-1
M  V30 15 C 5.887059 -0.564476 -17.378755 0
M  V30 16 O 7.591283 2.236169 -13.416592 0
M  V30 17 F 9.374496 8.648730 -7.171104 0
M  V30 18 P 7.148648 3.877514 -13.490371 0
M  V30 19 C 7.152243 0.033330 -17.103931 0
M  V30 20 C 7.383736 0.614494 -15.839362 0
M  V30 21 C 9.520861 6.474162 -8.026586 0
M  V30 22 C 10.503844 7.681515 -9.831890 0
M  V30 23 C 10.245485 7.672686 -7.419874 0 CFG=1
M  V30 24 C 6.381343 0.588256 -14.846930 0
M  V30 25 O 7.343638 -1.283098 -19.651864 0
M  V30 26 C 6.644576 1.183621 -13.467863 0
M  V30 27 C 4.890642 -0.579199 -16.385277 0
M  V30 28 O 10.453974 6.390220 -12.573850 0
M  V30 29 H 7.729173 4.656361 -8.930829 0
M  V30 30 H 6.923495 5.589914 -10.188138 0
M  V30 31 H 7.633702 4.024294 -10.547489 0
M  V30 32 H 4.369730 -0.032904 -14.363761 0
M  V30 33 H 9.892996 4.884076 -10.210623 0
M  V30 34 H 12.140580 7.590611 -8.427679 0
M  V30 35 H 11.404168 9.185649 -8.502746 0
M  V30 36 H 9.041622 0.621982 -17.815041 0
M  V30 37 H 5.667598 -1.001938 -18.329204 0
M  V30 38 H 8.560344 6.295426 -7.543608 0
M  V30 39 H 10.132106 5.578078 -7.909289 0
M  V30 40 H 11.250665 7.190312 -10.450712 0
M  V30 41 H 10.111477 8.532406 -10.387927 0
M  V30 42 H 10.752497 7.439276 -6.483092 0
M  V30 43 H 5.700291 1.493863 -13.022346 0
M  V30 44 H 7.021327 0.381214 -12.831830 0
M  V30 45 H 3.932990 -1.032616 -16.591628 0
M  V30 46 H 8.512764 7.344403 -9.545568 0
M  V30 END ATOM
M  V30 BEGIN BOND
M  V30 1 1 6 3
M  V30 2 1 8 1
M  V30 3 1 8 5
M  V30 4 1 9 4
M  V30 5 1 9 8
M  V30 6 1 12 3
M  V30 7 1 14 9
M  V30 8 1 18 2
M  V30 9 1 18 4
M  V30 10 2 18 13
M  V30 11 1 18 16
M  V30 12 1 19 12
M  V30 13 2 19 15
M  V30 14 1 20 10
M  V30 15 1 20 19
M  V30 16 1 21 5
M  V30 17 1 22 5
M  V30 18 1 22 11
M  V30 19 1 23 11
M  V30 20 1 23 17
M  V30 21 1 23 21
M  V30 22 1 24 7
M  V30 23 2 24 20
M  V30 24 2 25 3
M  V30 25 1 26 16
M  V30 26 1 26 24
M  V30 27 2 27 7
M  V30 28 1 27 15
M  V30 29 2 28 9
M  V30 30 1 29 1
M  V30 31 1 30 1
M  V30 32 1 31 1
M  V30 33 1 32 7
M  V30 34 1 8 33 CFG=3
M  V30 35 1 34 11
M  V30 36 1 35 11
M  V30 37 1 36 12
M  V30 38 1 37 15
M  V30 39 1 38 21
M  V30 40 1 39 21
M  V30 41 1 40 22
M  V30 42 1 41 22
M  V30 43 1 23 42 CFG=1
M  V30 44 1 43 26
M  V30 45 1 44 26
M  V30 46 1 45 27
M  V30 47 1 5 46 CFG=1
M  V30 END BOND
M  V30 END CTAB
M  END
>  <i_epik_Tot_Q>  (1) 
-2

>  <i_epik_Tot_abs_Q>  (1) 
4

>  <i_i_glide_confnum>  (1) 
72

>  <i_i_glide_lignum>  (1) 
97

>  <i_i_glide_posenum>  (1) 
62

>  <i_i_glide_rotatable_bonds>  (1) 
9

>  <i_lp_mmshare_version>  (1) 
72125

>  <i_m_source_file_index>  (1) 
62

>  <i_f3d_flags>  (1) 
0

>  <num_sample>  (1) 
100

>  <b_lp_Chiralities_Consistent>  (1) 
1

>  <r_epik_Charging_Adjusted_Penalty>  (1) 
0.22521151081801519

>  <r_epik_Ionization_Penalty>  (1) 
0.079461215956128484

>  <r_epik_Ionization_Penalty_Charging>  (1) 
0.079461215147622277

>  <r_epik_Ionization_Penalty_Neutral>  (1) 
8.0850620194651714e-10

>  <r_epik_State_Penalty>  (1) 
0.14575029567039291

>  <r_glide_ring_energy>  (1) 
0

>  <r_i_docking_score>  (1) 
-3.2746336411747095

>  <r_i_glide_ecoul>  (1) 
-0.97314486791220878

>  <r_i_glide_eff_state_penalty>  (1) 
0.14575029567039291

>  <r_i_glide_einternal>  (1) 
3.8653717362966216

>  <r_i_glide_emodel>  (1) 
-39.810533776783032

>  <r_i_glide_emodel_strain>  (1) 
2.7466940004598186

>  <r_i_glide_energy>  (1) 
-35.616170086704798

>  <r_i_glide_erotb>  (1) 
0.71514179105455389

>  <r_i_glide_esite>  (1) 
-0.1534545587839499

>  <r_i_glide_evdw>  (1) 
-34.643025218792587

>  <r_i_glide_gscore>  (1) 
-3.4203839368451026

>  <r_i_glide_gscore_strain>  (1) 
0

>  <r_i_glide_hbond>  (1) 
-0.20000000000000001

>  <r_i_glide_ligand_efficiency>  (1) 
-0.11695120147052533

>  <r_i_glide_ligand_efficiency_ln>  (1) 
-0.75588159180469428

>  <r_i_glide_ligand_efficiency_sa>  (1) 
-0.35513272863300605

>  <r_i_glide_lipo>  (1) 
-0.99849432269866312

>  <r_i_glide_metal>  (1) 
-0

>  <r_i_glide_rewards>  (1) 
-0.9054538552905822

>  <r_lp_Energy>  (1) 
5.9120159999999995

>  <s_epik_cmdline>  (1) 
J2VwaWtfcHl0aG9uJywgJy1waHQnLCAnMS4wJywgJy1waCcsICc3LjQnLCAnLXRuJywgJzgnLCAnLW1hJywgJzUwMCcsICctaW1hZScsICc8aW5maWxlLm1hZT4nLCAnLW9tYWUnLCAnPG91dGZpbGUubWFlPic=

>  <s_epik_input>  (1) 
W0NIMl0xW0NIMl1bQ0BASF0oRilbQ0gyXU4xW0NAQEhdKFtDSDNdKVtQQF0oPU8pKFtPSF0pT1tQQEBdKD1PKShbT0hdKU9bQ0gyXWMoYzJGKVtjSF1bY0hdW2NIXWMyW05IXUMoPU8pW09IXQ==

>  <s_glide_docking_method>  (1) 
confgen

>  <s_i_glide_gridfile>  (1) 
gpcr_drd2_6luq_protein_autoprepared_prepared

>  <s_lp_Force_Field>  (1) 
S-OPLS

>  <s_lp_Variant>  (1) 
DiffSBDD_61-2

>  <s_m_source_file>  (1) 
generated_generic_title2_ligand_DiffSBDD_2026-06-23_prepared.sdf

>  <GenAI_Model>  (1) 
DiffSBDD

>  <Protein>  (1) 
generic_title2

$$$$
DiffSBDD_86
     RDKit          3D

  0  0  0  0  0  0  0  0  0  0999 V3000
M  V30 BEGIN CTAB
M  V30 COUNTS 114 117 0 0 1
M  V30 BEGIN ATOM
M  V30 1 C 7.779373 -0.581612 -18.268433 0
M  V30 2 C 7.071528 0.004800 -19.492132 0 CFG=1
M  V30 3 C 9.617099 8.122112 -7.167586 0
M  V30 4 C 4.466072 -0.012666 -14.229658 0
M  V30 5 C 12.934615 2.545922 -17.887391 0 CFG=2
M  V30 6 C 8.992094 5.691447 -12.700489 0
M  V30 7 O 11.701513 3.348181 -19.825702 0
M  V30 8 C 11.950123 4.909937 -17.913181 0 CFG=2
M  V30 9 O 10.983705 6.949991 -19.943744 0
M  V30 10 C 11.851594 4.732072 -19.457528 0 CFG=2
M  V30 11 C 14.083620 1.700242 -17.303729 0
M  V30 12 O 5.824785 0.528192 -19.082174 0
M  V30 13 N 9.375691 7.612967 -9.615856 0
M  V30 14 C 10.110455 -1.172062 -21.836672 0
M  V30 15 C 10.248445 -0.009792 -18.844600 0 CFG=1
M  V30 16 C 9.168753 4.893192 -14.998786 0 CFG=2
M  V30 17 O 9.437256 2.327594 -18.154319 0
M  V30 18 C 7.080394 0.088168 -13.862183 0
M  V30 19 C 12.743303 2.431808 -19.443100 0 CFG=1
M  V30 20 C 14.038805 2.889589 -20.216656 0
M  V30 21 C 10.941608 0.580143 -20.086281 0 CFG=2
M  V30 22 O 12.969381 7.590213 -12.780472 0
M  V30 23 O 9.427138 4.678812 -12.155725 0
M  V30 24 N 11.150702 7.320517 -11.125822 0 CHG=1
M  V30 25 C 12.407362 0.955546 -19.851386 0
M  V30 26 C 13.095415 4.012850 -17.412670 0
M  V30 27 C 11.530804 9.481792 -6.042307 0
M  V30 28 O 8.668992 5.799931 -14.012388 0
M  V30 29 P 9.502402 1.534156 -19.402484 0 CFG=1
M  V30 30 C 6.484442 1.431976 -13.522552 0 CFG=2
M  V30 31 C 7.881787 1.088141 -20.218862 0
M  V30 32 C 13.885050 2.929127 -21.751306 0
M  V30 33 C 5.817967 0.549765 -14.550028 0 CFG=2
M  V30 34 F 13.373602 7.231042 -14.117819 0
M  V30 35 C 7.125475 2.755842 -13.879714 0
M  V30 36 C 13.379161 0.032731 -20.010267 0
M  V30 37 C 10.633451 0.247955 -21.561264 0
M  V30 38 C 9.808986 7.319003 -10.855048 0
M  V30 39 C 9.189885 -1.089729 -18.605819 0
M  V30 40 C 10.199093 5.555529 -15.983340 0 CFG=2
M  V30 41 C 8.789427 7.000412 -11.933317 0
M  V30 42 C 10.294890 7.959216 -8.520914 0
M  V30 43 C 10.765775 5.571490 -20.160894 0
M  V30 44 C 10.645494 4.619965 -17.111666 0
M  V30 45 O 11.375694 5.989601 -15.336979 0
M  V30 46 C 7.563593 2.916750 -15.344792 0
M  V30 47 C 7.902647 4.364644 -15.710537 0
M  V30 48 C 10.656097 8.218290 -6.035441 0
M  V30 49 C 11.729843 6.981952 -12.437861 0
M  V30 50 H 7.185959 -1.413568 -17.886223 0
M  V30 51 H 7.829984 0.148357 -17.453163 0
M  V30 52 H 6.876676 -0.807589 -20.195585 0
M  V30 53 H 8.976842 9.003296 -7.177169 0
M  V30 54 H 8.961443 7.269079 -6.987768 0
M  V30 55 H 4.444865 -0.399469 -13.215543 0
M  V30 56 H 3.715430 0.776287 -14.307637 0
M  V30 57 H 4.223356 -0.808016 -14.928048 0
M  V30 58 H 12.028540 2.150847 -17.433711 0
M  V30 59 H 12.236382 5.947062 -17.738834 0
M  V30 60 H 10.926707 7.117719 -19.013947 0
M  V30 61 H 12.774217 5.115031 -19.890304 0
M  V30 62 H 15.044757 1.974985 -17.734391 0
M  V30 63 H 14.158876 1.851613 -16.227926 0
M  V30 64 H 13.922622 0.633526 -17.453878 0
M  V30 65 H 5.353539 -0.136769 -18.606333 0
M  V30 66 H 8.345584 7.590234 -9.406018 0
M  V30 67 H 9.102619 -1.343134 -21.467204 0
M  V30 68 H 10.775643 -1.907605 -21.387326 0
M  V30 69 H 10.077207 -1.365252 -22.907798 0
M  V30 70 H 10.811560 0.140089 -17.923168 0
M  V30 71 H 9.643501 4.057706 -14.497661 0
M  V30 72 H 8.003906 0.071387 -14.440034 0
M  V30 73 H 6.966192 -0.703781 -13.128581 0
M  V30 74 H 14.404947 3.861047 -19.889467 0
M  V30 75 H 14.895390 2.257901 -19.991647 0
M  V30 76 H 13.137320 4.049507 -16.323611 0
M  V30 77 H 14.050318 4.408673 -17.754763 0
M  V30 78 H 12.218400 9.472060 -5.195451 0
M  V30 79 H 12.137949 9.557329 -6.943950 0
M  V30 80 H 10.929476 10.386739 -5.961570 0
M  V30 81 H 6.013353 1.466254 -12.542797 0
M  V30 82 H 8.024811 0.785835 -21.251804 0
M  V30 83 H 7.306142 2.013167 -20.285807 0
M  V30 84 H 14.816330 3.236543 -22.228287 0
M  V30 85 H 13.623744 1.953301 -22.159341 0
M  V30 86 H 13.113342 3.631974 -22.063163 0
M  V30 87 H 5.928137 0.766062 -15.606525 0
M  V30 88 H 7.979552 2.889972 -13.219878 0
M  V30 89 H 6.417240 3.545018 -13.624768 0
M  V30 90 H 13.144524 -0.975288 -20.305813 0
M  V30 91 H 14.418970 0.273332 -19.849501 0
M  V30 92 H 9.983030 1.002573 -21.999142 0
M  V30 93 H 11.552910 0.368595 -22.133424 0
M  V30 94 H 9.141746 -1.798634 -19.423954 0
M  V30 95 H 9.523653 -1.659244 -17.737001 0
M  V30 96 H 9.741018 6.390575 -16.472974 0
M  V30 97 H 8.770080 7.830091 -12.639916 0
M  V30 98 H 7.800328 6.957185 -11.479598 0
M  V30 99 H 11.058246 7.182055 -8.451882 0
M  V30 100 H 10.807827 8.882352 -8.788068 0
M  V30 101 H 9.756701 5.300795 -19.860701 0
M  V30 102 H 10.815737 5.399989 -21.235448 0
M  V30 103 H 9.823777 4.618440 -17.818847 0
M  V30 104 H 10.714587 3.631764 -16.663722 0
M  V30 105 H 11.770563 5.242465 -14.900781 0
M  V30 106 H 6.762369 2.635145 -16.021703 0
M  V30 107 H 8.405486 2.261290 -15.572195 0
M  V30 108 H 7.038059 5.002268 -15.502090 0
M  V30 109 H 7.996694 4.413066 -16.793571 0
M  V30 110 H 10.142023 8.176108 -5.086053 0
M  V30 111 H 11.291233 7.333527 -6.042334 0
M  V30 112 H 11.858606 5.909442 -12.429169 0
M  V30 113 H 11.008457 7.271583 -13.188711 0
M  V30 114 H 11.794866 7.548672 -10.382874 0
M  V30 END ATOM
M  V30 BEGIN BOND
M  V30 1 1 2 1
M  V30 2 1 10 7
M  V30 3 1 10 8
M  V30 4 1 11 5
M  V30 5 1 12 2
M  V30 6 1 19 5
M  V30 7 1 19 7
M  V30 8 1 19 20 CFG=3
M  V30 9 1 21 15
M  V30 10 2 23 6
M  V30 11 1 25 19
M  V30 12 1 25 21
M  V30 13 1 26 5
M  V30 14 1 26 8
M  V30 15 1 28 6
M  V30 16 1 28 16
M  V30 17 1 29 15
M  V30 18 2 29 17
M  V30 19 1 29 21
M  V30 20 1 30 18
M  V30 21 1 31 2
M  V30 22 1 29 31 CFG=3
M  V30 23 1 32 20
M  V30 24 1 33 4
M  V30 25 1 33 18
M  V30 26 1 33 30
M  V30 27 1 34 22
M  V30 28 1 35 30
M  V30 29 2 36 25
M  V30 30 1 37 14
M  V30 31 1 21 37 CFG=3
M  V30 32 1 38 13
M  V30 33 2 38 24
M  V30 34 1 39 1
M  V30 35 1 39 15
M  V30 36 1 40 16
M  V30 37 1 41 6
M  V30 38 1 41 38
M  V30 39 1 42 3
M  V30 40 1 42 13
M  V30 41 1 43 9
M  V30 42 1 43 10
M  V30 43 1 44 8
M  V30 44 1 44 40
M  V30 45 1 45 40
M  V30 46 1 46 35
M  V30 47 1 47 16
M  V30 48 1 47 46
M  V30 49 1 48 3
M  V30 50 1 48 27
M  V30 51 1 49 22
M  V30 52 1 49 24
M  V30 53 1 50 1
M  V30 54 1 51 1
M  V30 55 1 2 52 CFG=3
M  V30 56 1 53 3
M  V30 57 1 54 3
M  V30 58 1 55 4
M  V30 59 1 56 4
M  V30 60 1 57 4
M  V30 61 1 5 58 CFG=1
M  V30 62 1 8 59 CFG=3
M  V30 63 1 60 9
M  V30 64 1 10 61 CFG=3
M  V30 65 1 62 11
M  V30 66 1 63 11
M  V30 67 1 64 11
M  V30 68 1 65 12
M  V30 69 1 66 13
M  V30 70 1 67 14
M  V30 71 1 68 14
M  V30 72 1 69 14
M  V30 73 1 15 70 CFG=1
M  V30 74 1 16 71 CFG=1
M  V30 75 1 72 18
M  V30 76 1 73 18
M  V30 77 1 74 20
M  V30 78 1 75 20
M  V30 79 1 76 26
M  V30 80 1 77 26
M  V30 81 1 78 27
M  V30 82 1 79 27
M  V30 83 1 80 27
M  V30 84 1 30 81 CFG=1
M  V30 85 1 82 31
M  V30 86 1 83 31
M  V30 87 1 84 32
M  V30 88 1 85 32
M  V30 89 1 86 32
M  V30 90 1 33 87 CFG=3
M  V30 91 1 88 35
M  V30 92 1 89 35
M  V30 93 1 90 36
M  V30 94 1 91 36
M  V30 95 1 92 37
M  V30 96 1 93 37
M  V30 97 1 94 39
M  V30 98 1 95 39
M  V30 99 1 40 96 CFG=3
M  V30 100 1 97 41
M  V30 101 1 98 41
M  V30 102 1 99 42
M  V30 103 1 100 42
M  V30 104 1 101 43
M  V30 105 1 102 43
M  V30 106 1 103 44
M  V30 107 1 104 44
M  V30 108 1 105 45
M  V30 109 1 106 46
M  V30 110 1 107 46
M  V30 111 1 108 47
M  V30 112 1 109 47
M  V30 113 1 110 48
M  V30 114 1 111 48
M  V30 115 1 112 49
M  V30 116 1 113 49
M  V30 117 1 114 24
M  V30 END BOND
M  V30 END CTAB
M  END
>  <i_epik_Tot_Q>  (1) 
1

>  <i_epik_Tot_abs_Q>  (1) 
1

>  <i_i_glide_confnum>  (1) 
8728

>  <i_i_glide_lignum>  (1) 
154

>  <i_i_glide_posenum>  (1) 
115

>  <i_i_glide_rotatable_bonds>  (1) 
25

>  <i_lp_mmshare_version>  (1) 
72125

>  <i_m_source_file_index>  (1) 
87

>  <i_f3d_flags>  (1) 
0

>  <num_sample>  (1) 
100

>  <b_lp_Chiralities_Consistent>  (1) 
1

>  <r_epik_Charging_Adjusted_Penalty>  (1) 
0.16001273794586685

>  <r_epik_Ionization_Penalty>  (1) 
0.080843455150849161

>  <r_epik_Ionization_Penalty_Charging>  (1) 
0.080842825825004877

>  <r_epik_Ionization_Penalty_Neutral>  (1) 
6.2932584428919515e-07

>  <r_epik_State_Penalty>  (1) 
0.079169912120861954

>  <r_glide_ring_energy>  (1) 
0

>  <r_i_docking_score>  (1) 
-3.2732863058398403

>  <r_i_glide_ecoul>  (1) 
-12.349389296218934

>  <r_i_glide_eff_state_penalty>  (1) 
0.079169912120861954

>  <r_i_glide_einternal>  (1) 
34.559823068880767

>  <r_i_glide_emodel>  (1) 
-14.394334299297984

>  <r_i_glide_emodel_strain>  (1) 
12.05063757619628

>  <r_i_glide_energy>  (1) 
-36.340359584284784

>  <r_i_glide_erotb>  (1) 
0.57386026422142977

>  <r_i_glide_esite>  (1) 
-0.17244980735977508

>  <r_i_glide_evdw>  (1) 
-23.990970288065849

>  <r_i_glide_gscore>  (1) 
-3.352456217960702

>  <r_i_glide_gscore_strain>  (1) 
2.01265939404907

>  <r_i_glide_hbond>  (1) 
-0.46759453897443826

>  <r_i_glide_ligand_efficiency>  (1) 
-0.066801761343670205

>  <r_i_glide_ligand_efficiency_ln>  (1) 
-0.66913461786486417

>  <r_i_glide_ligand_efficiency_sa>  (1) 
-0.24444806672448424

>  <r_i_glide_lipo>  (1) 
-1.9050918241070123

>  <r_i_glide_metal>  (1) 
-0

>  <r_i_glide_rewards>  (1) 
-0.34188279695384327

>  <r_lp_Energy>  (1) 
45.628945999999999

>  <s_epik_Chemistry_Notes>  (1) 
This compound has an ester and may undergo hydrolysis at high or low pH. This compound has an imine and may undergo hydrolysis. This compound contains an acetal/aminal-like group ( X-CH(R)-Y where X, Y are N, S, or O) that may be acid/base labile, releasing an aldehyde.

>  <s_epik_cmdline>  (1) 
J2VwaWtfcHl0aG9uJywgJy1waHQnLCAnMS4wJywgJy1waCcsICc3LjQnLCAnLXRuJywgJzgnLCAnLW1hJywgJzUwMCcsICctaW1hZScsICc8aW5maWxlLm1hZT4nLCAnLW9tYWUnLCAnPG91dGZpbGUubWFlPic=

>  <s_epik_input>  (1) 
W09IXVtDQEBIXShbQ0gyXTEpW0NIMl1bQ0gyXVtDQEhdKFAxMj1PKVtDQEBdMihbQ0gyXVtDSDNdKUMoPVtDSDJdKVtDQF0zKFtDSDJdW0NIM10pW0NAQEhdKFtDSDNdKVtDSDJdW0NAQEhdKFtDQEBIXShPMylbQ0gyXVtPSF0pW0NIMl1bQ0BIXShbT0hdKVtDQEhdKFtDSDJdW0NIMl1bQ0gyXVtDQEBIXTRbQ0gyXVtDQEhdNFtDSDNdKU9DKD1PKVtDSDJdQyg9TlxbQ0gyXU9GKS9bTkhdW0NIMl1bQ0gyXVtDSDJdW0NIM10=

>  <s_glide_docking_method>  (1) 
confgen

>  <s_i_glide_gridfile>  (1) 
gpcr_drd2_6luq_protein_autoprepared_prepared

>  <s_lp_Force_Field>  (1) 
S-OPLS

>  <s_lp_Variant>  (1) 
DiffSBDD_86-2

>  <s_m_source_file>  (1) 
generated_generic_title2_ligand_DiffSBDD_2026-06-23_prepared.sdf

>  <GenAI_Model>  (1) 
DiffSBDD

>  <Protein>  (1) 
generic_title2

$$$$
DiffSBDD_78
     RDKit          3D

  0  0  0  0  0  0  0  0  0  0999 V3000
M  V30 BEGIN CTAB
M  V30 COUNTS 81 85 0 0 1
M  V30 BEGIN ATOM
M  V30 1 C 11.530850 8.840720 -7.769337 0 CFG=2
M  V30 2 C 12.975579 8.385043 -7.913891 0
M  V30 3 C 6.149682 4.565478 -12.204785 0 CFG=1
M  V30 4 C 7.228104 3.266743 -14.313823 0 CFG=2
M  V30 5 C 11.031044 8.875168 -6.312286 0
M  V30 6 N 7.744979 1.293220 -15.747015 0 CHG=1
M  V30 7 C 7.655907 2.729878 -12.911172 0 CFG=1
M  V30 8 C 8.648082 4.946709 -12.341412 0 CFG=1
M  V30 9 N 10.618132 7.936562 -8.498105 0 CFG=1 CHG=1
M  V30 10 C 9.375914 7.846926 -7.709627 0
M  V30 11 N 9.859488 5.672804 -12.804793 0 CFG=1 CHG=1
M  V30 12 C 7.016561 6.805358 -13.168468 0
M  V30 13 C 7.929194 2.749318 -15.573254 0
M  V30 14 C 7.740132 0.983682 -18.161625 0
M  V30 15 O 7.283554 4.698621 -14.298346 0
M  V30 16 C 10.114405 5.568655 -14.264990 0
M  V30 17 C 8.364035 0.262054 -19.367880 0 CFG=1
M  V30 18 C 6.298390 3.990218 -10.821561 0
M  V30 19 C 7.265386 5.296513 -12.993114 0 CFG=2
M  V30 20 F 9.591574 0.751389 -19.558805 0
M  V30 21 C 9.857996 7.896516 -6.269764 0
M  V30 22 C 5.653442 7.124912 -13.769098 0
M  V30 23 O 8.574056 -0.700089 -16.674471 0
M  V30 24 C 8.898570 3.430904 -12.363575 0
M  V30 25 C 8.482802 -1.240387 -19.052358 0 CFG=1
M  V30 26 C 9.834952 7.086392 -10.682353 0
M  V30 27 C 8.602822 0.665139 -16.919557 0 CFG=2
M  V30 28 C 10.437049 8.272497 -9.926412 0
M  V30 29 C 10.123264 7.016945 -12.203032 0
M  V30 30 C 7.581180 0.523737 -20.664156 0
M  V30 31 C 9.183221 -1.475366 -17.698682 0
M  V30 32 C 6.472660 3.082987 -12.037908 0 CFG=1
M  V30 33 F 7.273438 -1.800942 -19.010680 0
M  V30 34 H 11.467546 9.834528 -8.200553 0
M  V30 35 H 13.639604 9.005494 -7.310175 0
M  V30 36 H 13.067910 7.353089 -7.585027 0
M  V30 37 H 13.320140 8.443919 -8.946552 0
M  V30 38 H 5.134707 4.780117 -12.532003 0
M  V30 39 H 6.176190 3.012819 -14.453403 0
M  V30 40 H 10.690309 9.880604 -6.060587 0
M  V30 41 H 11.800302 8.605327 -5.588219 0
M  V30 42 H 8.025013 0.844254 -14.886377 0
M  V30 43 H 7.793233 1.647611 -12.911171 0
M  V30 44 H 8.546077 5.167269 -11.293556 0
M  V30 45 H 8.742074 8.711334 -7.913505 0
M  V30 46 H 8.809605 6.941245 -7.929541 0
M  V30 47 H 7.761050 7.225249 -13.840230 0
M  V30 48 H 7.120403 7.326534 -12.215275 0
M  V30 49 H 7.493671 3.255027 -16.435178 0
M  V30 50 H 8.975367 3.021879 -15.586648 0
M  V30 51 H 6.714087 0.646368 -18.002970 0
M  V30 52 H 7.721106 2.058636 -18.339254 0
M  V30 53 H 9.326480 5.990011 -14.887250 0
M  V30 54 H 11.080071 5.990478 -14.535633 0
M  V30 55 H 10.175412 4.530884 -14.566328 0
M  V30 56 H 5.375435 3.864013 -10.261185 0
M  V30 57 H 7.156897 4.182563 -10.187909 0
M  V30 58 H 9.074565 8.205970 -5.585025 0
M  V30 59 H 10.204809 6.910094 -5.956785 0
M  V30 60 H 5.688399 7.990220 -14.424426 0
M  V30 61 H 4.974778 7.343900 -12.952473 0
M  V30 62 H 5.255597 6.300790 -14.361000 0
M  V30 63 H 9.123158 3.087238 -11.354011 0
M  V30 64 H 9.775552 3.166826 -12.930538 0
M  V30 65 H 9.016672 -1.752064 -19.852954 0
M  V30 66 H 8.759484 7.119075 -10.515128 0
M  V30 67 H 10.176289 6.163867 -10.214458 0
M  V30 68 H 9.619906 1.061154 -16.955739 0
M  V30 69 H 11.404137 8.529194 -10.360118 0
M  V30 70 H 9.796267 9.151233 -9.985031 0
M  V30 71 H 11.182413 7.212244 -12.372494 0
M  V30 72 H 9.577219 7.806125 -12.717086 0
M  V30 73 H 6.557532 0.154345 -20.594467 0
M  V30 74 H 7.533469 1.589944 -20.888746 0
M  V30 75 H 8.054445 0.029386 -21.513046 0
M  V30 76 H 10.241846 -1.216726 -17.761921 0
M  V30 77 H 9.123037 -2.527260 -17.418746 0
M  V30 78 H 5.775416 2.277733 -12.088610 0
M  V30 79 H 11.039042 7.020019 -8.445032 0
M  V30 80 H 10.609213 5.110362 -12.423689 0
M  V30 81 H 6.767060 1.081386 -15.891334 0
M  V30 END ATOM
M  V30 BEGIN BOND
M  V30 1 1 2 1
M  V30 2 1 5 1
M  V30 3 1 7 4
M  V30 4 1 9 1
M  V30 5 1 10 9
M  V30 6 1 11 8
M  V30 7 1 13 4
M  V30 8 1 13 6
M  V30 9 1 15 4
M  V30 10 1 16 11
M  V30 11 1 17 14
M  V30 12 1 18 3
M  V30 13 1 19 3
M  V30 14 1 19 8
M  V30 15 1 19 12 CFG=3
M  V30 16 1 19 15
M  V30 17 1 17 20 CFG=3
M  V30 18 1 21 5
M  V30 19 1 21 10
M  V30 20 1 22 12
M  V30 21 1 24 7
M  V30 22 1 24 8
M  V30 23 1 25 17
M  V30 24 1 27 6
M  V30 25 1 27 14
M  V30 26 1 27 23
M  V30 27 1 28 9
M  V30 28 1 28 26
M  V30 29 1 29 11
M  V30 30 1 29 26
M  V30 31 1 30 17
M  V30 32 1 31 23
M  V30 33 1 31 25
M  V30 34 1 32 3
M  V30 35 1 32 7
M  V30 36 1 32 18
M  V30 37 1 33 25
M  V30 38 1 1 34 CFG=3
M  V30 39 1 35 2
M  V30 40 1 36 2
M  V30 41 1 37 2
M  V30 42 1 3 38 CFG=1
M  V30 43 1 4 39 CFG=3
M  V30 44 1 40 5
M  V30 45 1 41 5
M  V30 46 1 42 6
M  V30 47 1 7 43 CFG=3
M  V30 48 1 8 44 CFG=1
M  V30 49 1 45 10
M  V30 50 1 46 10
M  V30 51 1 47 12
M  V30 52 1 48 12
M  V30 53 1 49 13
M  V30 54 1 50 13
M  V30 55 1 51 14
M  V30 56 1 52 14
M  V30 57 1 53 16
M  V30 58 1 54 16
M  V30 59 1 55 16
M  V30 60 1 56 18
M  V30 61 1 57 18
M  V30 62 1 58 21
M  V30 63 1 59 21
M  V30 64 1 60 22
M  V30 65 1 61 22
M  V30 66 1 62 22
M  V30 67 1 63 24
M  V30 68 1 64 24
M  V30 69 1 25 65 CFG=3
M  V30 70 1 66 26
M  V30 71 1 67 26
M  V30 72 1 27 68 CFG=3
M  V30 73 1 69 28
M  V30 74 1 70 28
M  V30 75 1 71 29
M  V30 76 1 72 29
M  V30 77 1 73 30
M  V30 78 1 74 30
M  V30 79 1 75 30
M  V30 80 1 76 31
M  V30 81 1 77 31
M  V30 82 1 32 78 CFG=1
M  V30 83 1 9 79 CFG=3
M  V30 84 1 11 80 CFG=1
M  V30 85 1 81 6
M  V30 END BOND
M  V30 END CTAB
M  END
>  <i_epik_Tot_Q>  (1) 
3

>  <i_epik_Tot_abs_Q>  (1) 
3

>  <i_i_glide_confnum>  (1) 
896

>  <i_i_glide_lignum>  (1) 
136

>  <i_i_glide_posenum>  (1) 
272

>  <i_i_glide_rotatable_bonds>  (1) 
9

>  <i_lp_mmshare_version>  (1) 
72125

>  <i_m_source_file_index>  (1) 
79

>  <i_f3d_flags>  (1) 
0

>  <num_sample>  (1) 
100

>  <b_lp_Chiralities_Consistent>  (1) 
1

>  <r_epik_Charging_Adjusted_Penalty>  (1) 
1.7942086838225126

>  <r_epik_Ionization_Penalty>  (1) 
0.94562311220168549

>  <r_epik_Ionization_Penalty_Charging>  (1) 
0.94562311220168382

>  <r_epik_Ionization_Penalty_Neutral>  (1) 
1.710257484888175e-15

>  <r_epik_State_Penalty>  (1) 
0.84858557162082893

>  <r_glide_ring_energy>  (1) 
0

>  <r_i_docking_score>  (1) 
-3.2681777471787532

>  <r_i_glide_ecoul>  (1) 
-4.8610775206388785

>  <r_i_glide_eff_state_penalty>  (1) 
0.84858557162082893

>  <r_i_glide_einternal>  (1) 
1.4526241324490847

>  <r_i_glide_emodel>  (1) 
-32.707737031856617

>  <r_i_glide_emodel_strain>  (1) 
2.3883797596000846

>  <r_i_glide_energy>  (1) 
-25.716247502267898

>  <r_i_glide_erotb>  (1) 
0.72404097212868179

>  <r_i_glide_esite>  (1) 
-0.011655272344494708

>  <r_i_glide_evdw>  (1) 
-20.855169981629018

>  <r_i_glide_gscore>  (1) 
-4.116763318799582

>  <r_i_glide_gscore_strain>  (1) 
0

>  <r_i_glide_hbond>  (1) 
0

>  <r_i_glide_ligand_efficiency>  (1) 
-0.09903568930844707

>  <r_i_glide_ligand_efficiency_ln>  (1) 
-0.72682580925381068

>  <r_i_glide_ligand_efficiency_sa>  (1) 
-0.3176603733516446

>  <r_i_glide_lipo>  (1) 
-1.8789297381755061

>  <r_i_glide_metal>  (1) 
-0

>  <r_i_glide_rewards>  (1) 
-1.1782991532309801

>  <r_lp_Energy>  (1) 
78.428286999999997

>  <s_epik_Chemistry_Notes>  (1) 
This compound contains an acetal/aminal-like group ( X-CH(R)-Y where X, Y are N, S, or O) that may be acid/base labile, releasing an aldehyde.

>  <s_epik_cmdline>  (1) 
J2VwaWtfcHl0aG9uJywgJy1waHQnLCAnMS4wJywgJy1waCcsICc3LjQnLCAnLXRuJywgJzgnLCAnLW1hJywgJzUwMCcsICctaW1hZScsICc8aW5maWxlLm1hZT4nLCAnLW9tYWUnLCAnPG91dGZpbGUubWFlPic=

>  <s_epik_input>  (1) 
W0NIM11bQ0BASF0xW0NIMl1bQ0gyXVtDSDJdTjFbQ0gyXVtDSDJdW0NIMl1OKFtDSDNdKVtDQEBIXTJbQ0gyXVtDQEBIXShbQ0BASF0oW0NIMl0zKVtDQEBIXTNbQ0BAXTI0W0NIMl1bQ0gzXSlbQ0BASF0oTzQpW0NIMl1bTkhdW0NASF0oW0NIMl1bQ0BdNShGKVtDSDNdKU9bQ0gyXVtDQEhdNUY=

>  <s_glide_docking_method>  (1) 
confgen

>  <s_i_glide_gridfile>  (1) 
gpcr_drd2_6luq_protein_autoprepared_prepared

>  <s_lp_Force_Field>  (1) 
S-OPLS

>  <s_lp_Variant>  (1) 
DiffSBDD_78-8

>  <s_m_source_file>  (1) 
generated_generic_title2_ligand_DiffSBDD_2026-06-23_prepared.sdf

>  <GenAI_Model>  (1) 
DiffSBDD

>  <Protein>  (1) 
generic_title2

$$$$
DiffSBDD_53
     RDKit          3D

  0  0  0  0  0  0  0  0  0  0999 V3000
M  V30 BEGIN CTAB
M  V30 COUNTS 73 75 0 0 1
M  V30 BEGIN ATOM
M  V30 1 C 6.324414 4.227431 -12.486513 0
M  V30 2 C 7.943820 4.855236 -21.184737 0
M  V30 3 O 5.153428 3.996271 -12.785056 0
M  V30 4 S 6.694828 5.998911 -20.527294 0
M  V30 5 C 7.898531 0.377019 -21.401741 0
M  V30 6 C 7.489571 5.179921 -18.032666 0
M  V30 7 C 7.466357 1.942015 -16.497234 0
M  V30 8 C 6.994248 6.146911 -18.777296 0
M  V30 9 C 5.552752 1.011523 -20.640432 0
M  V30 10 C 6.913960 2.631586 -22.082159 0
M  V30 11 C 8.892946 6.036631 -10.700767 0
M  V30 12 C 11.205441 4.649280 -17.956943 0
M  V30 13 C 8.278093 4.754094 -11.282916 0 CFG=1
M  V30 14 C 6.718907 4.689304 -11.108044 0
M  V30 15 N 7.343614 4.113468 -13.313956 0
M  V30 16 C 5.279481 -0.408130 -20.169994 0
M  V30 17 C 7.578159 2.278016 -15.000942 0
M  V30 18 C 8.279072 2.893742 -17.403961 0 CFG=1
M  V30 19 C 7.942223 4.777874 -15.626708 0 CFG=2
M  V30 20 C 10.689475 3.275115 -18.402101 0
M  V30 21 C 6.605794 1.135038 -21.781944 0
M  V30 22 C 9.242165 5.590333 -13.612279 0
M  V30 23 C 7.578065 3.390534 -20.923821 0
M  V30 24 C 7.214832 3.747992 -14.731794 0 CFG=2
M  V30 25 C 8.645383 4.441080 -12.785472 0 CFG=1
M  V30 26 C 6.058954 0.522957 -23.087998 0
M  V30 27 C 5.393340 -0.810206 -18.894563 0
M  V30 28 C 7.920882 4.355106 -17.096375 0
M  V30 29 C 9.786919 2.553101 -17.381065 0
M  V30 30 C 9.328540 5.184143 -15.091168 0
M  V30 31 H 8.069495 5.034573 -22.252597 0
M  V30 32 H 8.898271 5.097754 -20.716540 0
M  V30 33 H 8.704547 0.586761 -22.105558 0
M  V30 34 H 7.742728 -0.702536 -21.403759 0
M  V30 35 H 8.248605 0.642368 -20.403470 0
M  V30 36 H 7.765732 0.907229 -16.666274 0
M  V30 37 H 6.416419 1.990496 -16.788406 0
M  V30 38 H 6.733340 7.102073 -18.347312 0
M  V30 39 H 4.608662 1.458124 -20.952542 0
M  V30 40 H 5.864972 1.568799 -19.760114 0
M  V30 41 H 5.993665 3.146460 -22.362189 0
M  V30 42 H 7.568042 2.695083 -22.953204 0
M  V30 43 H 8.499311 6.929811 -11.186702 0
M  V30 44 H 9.977415 6.044052 -10.801304 0
M  V30 45 H 8.660723 6.122944 -9.638696 0
M  V30 46 H 11.922249 5.041887 -18.677903 0
M  V30 47 H 11.710750 4.588228 -16.992625 0
M  V30 48 H 10.401998 5.378704 -17.876855 0
M  V30 49 H 8.697447 3.939094 -10.695829 0
M  V30 50 H 6.280480 5.666841 -10.901317 0
M  V30 51 H 6.405855 3.989151 -10.334007 0
M  V30 52 H 4.975504 -1.117864 -20.924440 0
M  V30 53 H 6.907865 1.628052 -14.436255 0
M  V30 54 H 8.575398 2.053705 -14.637860 0
M  V30 55 H 7.956557 2.658697 -18.409688 0
M  V30 56 H 7.348046 5.692789 -15.558082 0
M  V30 57 H 10.192288 3.361841 -19.364784 0
M  V30 58 H 11.559632 2.642705 -18.581953 0
M  V30 59 H 8.608378 6.473461 -13.519990 0
M  V30 60 H 10.230435 5.858312 -13.237999 0
M  V30 61 H 6.909567 3.367007 -20.071201 0
M  V30 62 H 8.488287 2.867005 -20.646728 0
M  V30 63 H 6.175394 3.843398 -15.022072 0
M  V30 64 H 9.295336 3.565684 -12.833784 0
M  V30 65 H 5.172231 1.054509 -23.435552 0
M  V30 66 H 5.785637 -0.524973 -22.968035 0
M  V30 67 H 6.798483 0.571059 -23.888018 0
M  V30 68 H 5.694209 -0.122941 -18.117442 0
M  V30 69 H 5.186192 -1.832780 -18.613332 0
M  V30 70 H 10.189753 2.669068 -16.385113 0
M  V30 71 H 9.875311 1.485664 -17.587884 0
M  V30 72 H 10.055064 4.390259 -15.178325 0
M  V30 73 H 9.726410 5.990213 -15.699137 0
M  V30 END ATOM
M  V30 BEGIN BOND
M  V30 1 2 3 1
M  V30 2 1 4 2
M  V30 3 1 8 4
M  V30 4 2 8 6
M  V30 5 1 13 11
M  V30 6 1 14 1
M  V30 7 1 14 13
M  V30 8 1 15 1
M  V30 9 1 16 9
M  V30 10 1 17 7
M  V30 11 1 18 7
M  V30 12 1 20 12
M  V30 13 1 21 5
M  V30 14 1 21 9
M  V30 15 1 21 10
M  V30 16 1 23 2
M  V30 17 1 23 10
M  V30 18 1 24 15
M  V30 19 1 24 17
M  V30 20 1 24 19
M  V30 21 1 25 13
M  V30 22 1 25 15
M  V30 23 1 25 22
M  V30 24 1 26 21
M  V30 25 2 27 16
M  V30 26 2 28 6
M  V30 27 1 28 18
M  V30 28 1 28 19
M  V30 29 1 29 18
M  V30 30 1 29 20
M  V30 31 1 30 19
M  V30 32 1 30 22
M  V30 33 1 31 2
M  V30 34 1 32 2
M  V30 35 1 33 5
M  V30 36 1 34 5
M  V30 37 1 35 5
M  V30 38 1 36 7
M  V30 39 1 37 7
M  V30 40 1 38 8
M  V30 41 1 39 9
M  V30 42 1 40 9
M  V30 43 1 41 10
M  V30 44 1 42 10
M  V30 45 1 43 11
M  V30 46 1 44 11
M  V30 47 1 45 11
M  V30 48 1 46 12
M  V30 49 1 47 12
M  V30 50 1 48 12
M  V30 51 1 13 49 CFG=1
M  V30 52 1 50 14
M  V30 53 1 51 14
M  V30 54 1 52 16
M  V30 55 1 53 17
M  V30 56 1 54 17
M  V30 57 1 18 55 CFG=3
M  V30 58 1 19 56 CFG=3
M  V30 59 1 57 20
M  V30 60 1 58 20
M  V30 61 1 59 22
M  V30 62 1 60 22
M  V30 63 1 61 23
M  V30 64 1 62 23
M  V30 65 1 24 63 CFG=3
M  V30 66 1 25 64 CFG=1
M  V30 67 1 65 26
M  V30 68 1 66 26
M  V30 69 1 67 26
M  V30 70 1 68 27
M  V30 71 1 69 27
M  V30 72 1 70 29
M  V30 73 1 71 29
M  V30 74 1 72 30
M  V30 75 1 73 30
M  V30 END BOND
M  V30 END CTAB
M  END
>  <i_epik_Tot_Q>  (1) 
0

>  <i_epik_Tot_abs_Q>  (1) 
0

>  <i_i_glide_confnum>  (1) 
302

>  <i_i_glide_lignum>  (1) 
86

>  <i_i_glide_posenum>  (1) 
348

>  <i_i_glide_rotatable_bonds>  (1) 
9

>  <i_lp_mmshare_version>  (1) 
72125

>  <i_m_source_file_index>  (1) 
54

>  <i_f3d_flags>  (1) 
0

>  <num_sample>  (1) 
100

>  <b_lp_Chiralities_Consistent>  (1) 
1

>  <r_epik_Charging_Adjusted_Penalty>  (1) 
0

>  <r_epik_Ionization_Penalty>  (1) 
8.5702257649792976e-08

>  <r_epik_Ionization_Penalty_Charging>  (1) 
0

>  <r_epik_Ionization_Penalty_Neutral>  (1) 
8.5702257649792976e-08

>  <r_epik_State_Penalty>  (1) 
-0

>  <r_glide_ring_energy>  (1) 
0

>  <r_i_docking_score>  (1) 
-3.2535140248551175

>  <r_i_glide_ecoul>  (1) 
-1.8523868296656043

>  <r_i_glide_eff_state_penalty>  (1) 
-0

>  <r_i_glide_einternal>  (1) 
2.5851157815782235

>  <r_i_glide_emodel>  (1) 
-26.675516418022468

>  <r_i_glide_emodel_strain>  (1) 
0.50691556143012662

>  <r_i_glide_energy>  (1) 
-23.814103146555802

>  <r_i_glide_erotb>  (1) 
0.86106388295804615

>  <r_i_glide_esite>  (1) 
0

>  <r_i_glide_evdw>  (1) 
-21.961716316890197

>  <r_i_glide_gscore>  (1) 
-3.2535140248551175

>  <r_i_glide_gscore_strain>  (1) 
0

>  <r_i_glide_hbond>  (1) 
0

>  <r_i_glide_ligand_efficiency>  (1) 
-0.10845046749517058

>  <r_i_glide_ligand_efficiency_ln>  (1) 
-0.73923383632169559

>  <r_i_glide_ligand_efficiency_sa>  (1) 
-0.33698081788688644

>  <r_i_glide_lipo>  (1) 
-1.4246581537516458

>  <r_i_glide_metal>  (1) 
-0

>  <r_i_glide_rewards>  (1) 
-1.3139759137671674

>  <r_lp_Energy>  (1) 
0.63202399999999992

>  <r_lp_tautomer_probability>  (1) 
1

>  <s_epik_cmdline>  (1) 
J2VwaWtfcHl0aG9uJywgJy1waHQnLCAnMS4wJywgJy1waCcsICc3LjQnLCAnLXRuJywgJzgnLCAnLW1hJywgJzUwMCcsICctaW1hZScsICc8aW5maWxlLm1hZT4nLCAnLW9tYWUnLCAnPG91dGZpbGUubWFlPic=

>  <s_epik_input>  (1) 
Tz1DMVtDSDJdW0NASF0oW0NIM10pW0NAQEhdMltDSDJdW0NIMl1bQ0BIXShbQ0BASF0zTjEyKUMoW0NASF0oW0NIMl1bQ0gyXTMpW0NIMl1bQ0gyXVtDSDNdKT1DPVtDSF1TW0NIMl1bQ0gyXVtDSDJdQyhbQ0gzXSkoW0NIM10pW0NIMl1bQ0hdPVtDSDJd

>  <s_glide_docking_method>  (1) 
confgen

>  <s_i_glide_gridfile>  (1) 
gpcr_drd2_6luq_protein_autoprepared_prepared

>  <s_lp_Force_Field>  (1) 
S-OPLS

>  <s_lp_Variant>  (1) 
DiffSBDD_53-1

>  <s_m_source_file>  (1) 
generated_generic_title2_ligand_DiffSBDD_2026-06-23_prepared.sdf

>  <GenAI_Model>  (1) 
DiffSBDD

>  <Protein>  (1) 
generic_title2

$$$$
DiffSBDD_89
     RDKit          3D

  0  0  0  0  0  0  0  0  0  0999 V3000
M  V30 BEGIN CTAB
M  V30 COUNTS 79 82 0 0 1
M  V30 BEGIN ATOM
M  V30 1 C 11.145618 1.147426 -19.503349 0
M  V30 2 O 9.164068 6.653393 -6.636625 0
M  V30 3 C 11.630129 9.246055 -9.389701 0
M  V30 4 C 9.100403 4.979899 -8.342089 0
M  V30 5 C 9.300102 6.390242 -7.828853 0
M  V30 6 C 9.696603 7.484192 -8.867224 0 CFG=1
M  V30 7 F 13.235313 4.164740 -19.833584 0
M  V30 8 C 8.195373 1.234837 -17.204483 0
M  V30 9 C 6.392961 5.269227 -15.915145 0
M  V30 10 C 9.705227 5.185398 -16.553916 0
M  V30 11 F 13.951065 2.127556 -19.736566 0
M  V30 12 F 12.713766 2.763502 -21.392477 0
M  V30 13 C 12.107296 7.190586 -8.230646 0
M  V30 14 C 8.818168 5.277147 -12.000731 0 CFG=2
M  V30 15 C 9.878205 2.937047 -17.725144 0
M  V30 16 N 8.898757 5.841288 -10.628314 0
M  V30 17 C 4.975348 8.001921 -11.585226 0
M  V30 18 C 11.029247 8.200896 -8.430312 0
M  V30 19 O 11.754494 0.277301 -20.362991 0
M  V30 20 C 8.110944 3.428043 -16.141929 0
M  V30 21 C 9.229466 3.812626 -16.828531 0
M  V30 22 C 7.523227 4.469584 -15.206515 0 CFG=1
M  V30 23 C 11.032541 3.344411 -18.429779 0
M  V30 24 C 11.668814 2.451970 -19.319883 0
M  V30 25 C 7.566498 2.138089 -16.315253 0
M  V30 26 C 9.613984 6.978368 -10.366777 0
M  V30 27 O 10.184408 7.605909 -11.255384 0
M  V30 28 C 7.363860 5.017476 -12.533057 0 CFG=1
M  V30 29 C 9.775424 4.079840 -12.075624 0
M  V30 30 C 9.991943 0.742746 -18.799752 0
M  V30 31 C 12.916474 2.893179 -20.081584 0
M  V30 32 C 6.529135 6.317571 -12.719055 0 CFG=2
M  V30 33 F 7.324866 7.373480 -12.902042 0
M  V30 34 O 10.879296 8.845954 -7.178150 0
M  V30 35 C 8.225801 5.088857 -9.566316 0
M  V30 36 C 8.809313 5.405615 -15.281592 0
M  V30 37 C 7.199122 3.989705 -13.721241 0 CFG=1
M  V30 38 C 5.852373 3.265803 -13.495623 0
M  V30 39 C 5.529269 6.577351 -11.585020 0
M  V30 40 C 9.356778 1.634428 -17.912198 0
M  V30 41 H 11.939164 8.841158 -10.350453 0
M  V30 42 H 10.975999 10.088755 -9.584997 0
M  V30 43 H 12.569845 9.590237 -8.976565 0
M  V30 44 H 10.058796 4.515120 -8.573160 0
M  V30 45 H 8.606865 4.375519 -7.585018 0
M  V30 46 H 8.975383 8.284527 -8.795458 0
M  V30 47 H 7.789423 0.242631 -17.342657 0
M  V30 48 H 6.567738 6.343993 -15.878115 0
M  V30 49 H 6.331845 5.025228 -16.976730 0
M  V30 50 H 5.407155 5.152405 -15.476002 0
M  V30 51 H 10.769197 5.248452 -16.322188 0
M  V30 52 H 9.447691 5.859127 -17.372535 0
M  V30 53 H 12.175417 6.790208 -9.235216 0
M  V30 54 H 13.069506 7.621352 -7.950962 0
M  V30 55 H 11.829543 6.415623 -7.513847 0
M  V30 56 H 9.241050 6.007373 -12.682845 0
M  V30 57 H 4.187387 8.116059 -10.842352 0
M  V30 58 H 5.764735 8.713237 -11.342867 0
M  V30 59 H 4.575435 8.282846 -12.556340 0
M  V30 60 H 12.506583 0.646152 -20.803408 0
M  V30 61 H 11.430921 4.337473 -18.289082 0
M  V30 62 H 6.685385 1.837673 -15.781755 0
M  V30 63 H 6.887427 4.510238 -11.700639 0
M  V30 64 H 9.785652 3.588460 -13.038107 0
M  V30 65 H 10.795322 4.435455 -11.984720 0
M  V30 66 H 9.569389 3.323530 -11.319471 0
M  V30 67 H 9.595435 -0.252558 -18.942779 0
M  V30 68 H 5.930156 6.274345 -13.620235 0
M  V30 69 H 11.728587 9.117805 -6.868727 0
M  V30 70 H 7.296665 5.571817 -9.278737 0
M  V30 71 H 7.944241 4.094404 -9.900408 0
M  V30 72 H 8.575346 6.434443 -15.075175 0
M  V30 73 H 9.496953 5.093548 -14.510147 0
M  V30 74 H 7.882081 3.169386 -13.534690 0
M  V30 75 H 4.983771 3.896488 -13.681134 0
M  V30 76 H 5.775464 2.335716 -14.038955 0
M  V30 77 H 5.775453 2.927723 -12.463374 0
M  V30 78 H 4.724097 5.848369 -11.610322 0
M  V30 79 H 5.990630 6.390053 -10.632685 0
M  V30 END ATOM
M  V30 BEGIN BOND
M  V30 1 2 5 2
M  V30 2 1 5 4
M  V30 3 1 6 5
M  V30 4 1 16 14
M  V30 5 1 18 3
M  V30 6 1 18 6
M  V30 7 1 18 13
M  V30 8 1 19 1
M  V30 9 1 21 10
M  V30 10 1 21 15
M  V30 11 2 21 20
M  V30 12 1 22 9 CFG=3
M  V30 13 1 22 20
M  V30 14 2 23 15
M  V30 15 2 24 1
M  V30 16 1 24 23
M  V30 17 2 25 8
M  V30 18 1 25 20
M  V30 19 1 26 6
M  V30 20 1 26 16
M  V30 21 2 27 26
M  V30 22 1 28 14
M  V30 23 1 29 14
M  V30 24 1 30 1
M  V30 25 1 31 7
M  V30 26 1 31 11
M  V30 27 1 31 12
M  V30 28 1 31 24
M  V30 29 1 32 28
M  V30 30 1 33 32
M  V30 31 1 34 18
M  V30 32 1 35 4
M  V30 33 1 35 16
M  V30 34 1 36 10
M  V30 35 1 36 22
M  V30 36 1 37 22
M  V30 37 1 37 28
M  V30 38 1 38 37
M  V30 39 1 39 17
M  V30 40 1 39 32
M  V30 41 1 40 8
M  V30 42 1 40 15
M  V30 43 2 40 30
M  V30 44 1 41 3
M  V30 45 1 42 3
M  V30 46 1 43 3
M  V30 47 1 44 4
M  V30 48 1 45 4
M  V30 49 1 6 46 CFG=3
M  V30 50 1 47 8
M  V30 51 1 48 9
M  V30 52 1 49 9
M  V30 53 1 50 9
M  V30 54 1 51 10
M  V30 55 1 52 10
M  V30 56 1 53 13
M  V30 57 1 54 13
M  V30 58 1 55 13
M  V30 59 1 14 56 CFG=3
M  V30 60 1 57 17
M  V30 61 1 58 17
M  V30 62 1 59 17
M  V30 63 1 60 19
M  V30 64 1 61 23
M  V30 65 1 62 25
M  V30 66 1 28 63 CFG=1
M  V30 67 1 64 29
M  V30 68 1 65 29
M  V30 69 1 66 29
M  V30 70 1 67 30
M  V30 71 1 32 68 CFG=3
M  V30 72 1 69 34
M  V30 73 1 70 35
M  V30 74 1 71 35
M  V30 75 1 72 36
M  V30 76 1 73 36
M  V30 77 1 37 74 CFG=1
M  V30 78 1 75 38
M  V30 79 1 76 38
M  V30 80 1 77 38
M  V30 81 1 78 39
M  V30 82 1 79 39
M  V30 END BOND
M  V30 END CTAB
M  END
>  <i_epik_Tot_Q>  (1) 
0

>  <i_epik_Tot_abs_Q>  (1) 
0

>  <i_i_glide_confnum>  (1) 
510

>  <i_i_glide_lignum>  (1) 
164

>  <i_i_glide_posenum>  (1) 
69

>  <i_i_glide_rotatable_bonds>  (1) 
10

>  <i_lp_mmshare_version>  (1) 
72125

>  <i_m_source_file_index>  (1) 
90

>  <i_f3d_flags>  (1) 
0

>  <num_sample>  (1) 
100

>  <b_lp_Chiralities_Consistent>  (1) 
1

>  <r_epik_Charging_Adjusted_Penalty>  (1) 
0

>  <r_epik_Ionization_Penalty>  (1) 
0.063976020685543381

>  <r_epik_Ionization_Penalty_Charging>  (1) 
0

>  <r_epik_Ionization_Penalty_Neutral>  (1) 
0.063976020685543381

>  <r_epik_State_Penalty>  (1) 
-0

>  <r_glide_ring_energy>  (1) 
0

>  <r_i_docking_score>  (1) 
-3.2522328515657954

>  <r_i_glide_ecoul>  (1) 
-2.2526055759761388

>  <r_i_glide_eff_state_penalty>  (1) 
-0

>  <r_i_glide_einternal>  (1) 
13.200456502501218

>  <r_i_glide_emodel>  (1) 
-22.862880644192007

>  <r_i_glide_emodel_strain>  (1) 
6.2431278448859473

>  <r_i_glide_energy>  (1) 
-29.480319010200752

>  <r_i_glide_erotb>  (1) 
0.30496708774431369

>  <r_i_glide_esite>  (1) 
-0.26542219535702788

>  <r_i_glide_evdw>  (1) 
-27.227713434224611

>  <r_i_glide_gscore>  (1) 
-3.2522328515657954

>  <r_i_glide_gscore_strain>  (1) 
0.56078196122148682

>  <r_i_glide_hbond>  (1) 
0

>  <r_i_glide_ligand_efficiency>  (1) 
-0.081305821289144889

>  <r_i_glide_ligand_efficiency_ln>  (1) 
-0.69360555829865633

>  <r_i_glide_ligand_efficiency_sa>  (1) 
-0.27806199745846377

>  <r_i_glide_lipo>  (1) 
-1.6628322252181533

>  <r_i_glide_metal>  (1) 
-0

>  <r_i_glide_rewards>  (1) 
-0.49045097184876302

>  <r_lp_Energy>  (1) 
57.567276

>  <r_lp_tautomer_probability>  (1) 
1

>  <s_epik_cmdline>  (1) 
J2VwaWtfcHl0aG9uJywgJy1waHQnLCAnMS4wJywgJy1waCcsICc3LjQnLCAnLXRuJywgJzgnLCAnLW1hJywgJzUwMCcsICctaW1hZScsICc8aW5maWxlLm1hZT4nLCAnLW9tYWUnLCAnPG91dGZpbGUubWFlPic=

>  <s_epik_input>  (1) 
RkMoRikoRiljKFtjSF0xKWMoW09IXSlbY0hdYzJbY0hdW2NIXWMoYzNjMTIpW0NAXShbQ0gzXSkoW0NIMl1bQ0gyXTMpW0NASF0oW0NIM10pW0NASF0oW0NASF0oRilbQ0gyXVtDSDNdKVtDQEhdKFtDSDNdKU4oW0NIMl1bQ0gyXUM0PU8pQyg9TylbQ0BASF00QyhbQ0gzXSkoW0NIM10pW09IXQ==

>  <s_glide_docking_method>  (1) 
confgen

>  <s_i_glide_gridfile>  (1) 
gpcr_drd2_6luq_protein_autoprepared_prepared

>  <s_lp_Force_Field>  (1) 
S-OPLS

>  <s_lp_Variant>  (1) 
DiffSBDD_89-1

>  <s_m_source_file>  (1) 
generated_generic_title2_ligand_DiffSBDD_2026-06-23_prepared.sdf

>  <GenAI_Model>  (1) 
DiffSBDD

>  <Protein>  (1) 
generic_title2

$$$$
DiffSBDD_31
     RDKit          3D

  0  0  0  0  0  0  0  0  0  0999 V3000
M  V30 BEGIN CTAB
M  V30 COUNTS 103 109 0 0 1
M  V30 BEGIN ATOM
M  V30 1 C 11.366755 5.405225 -22.711259 0
M  V30 2 C 10.187650 4.624509 -16.085804 0
M  V30 3 C 8.131014 5.328364 -9.268228 0 CFG=2
M  V30 4 C 10.263295 3.609503 -20.454872 0
M  V30 5 O 9.079914 2.962951 -17.448692 0
M  V30 6 C 4.391450 7.120547 -18.462053 0
M  V30 7 C 11.974530 5.836477 -21.358769 0
M  V30 8 C 7.129457 7.458300 -14.044625 0
M  V30 9 C 9.971290 4.734750 -22.634716 0 CFG=1
M  V30 10 C 12.626043 4.672642 -20.638154 0 CFG=2
M  V30 11 C 5.274367 5.895604 -18.623479 0 CFG=1
M  V30 12 C 11.755816 3.526476 -20.185094 0 CFG=1
M  V30 13 C 11.505647 4.297366 -16.828220 0
M  V30 14 C 12.599257 6.456265 -17.663707 0 CFG=1
M  V30 15 C 4.448391 8.133294 -19.616894 0
M  V30 16 C 12.509248 4.355925 -19.154015 0 CFG=2
M  V30 17 C 7.245788 3.171409 -14.693931 0
M  V30 18 C 5.840137 5.300584 -19.922312 0 CFG=2
M  V30 19 C 7.327270 5.549353 -15.623575 0
M  V30 20 C 5.765974 7.159136 -13.405624 0
M  V30 21 C 9.461002 5.006780 -9.942996 0
M  V30 22 O 10.101988 5.668624 -12.151202 0
M  V30 23 O 9.971672 3.534995 -21.849165 0
M  V30 24 N 6.748404 6.046921 -20.852727 0 CFG=1 CHG=1
M  V30 25 C 11.803682 5.184698 -18.069662 0 CFG=1
M  V30 26 C 9.196011 5.484529 -11.340684 0
M  V30 27 C 7.624070 4.072085 -15.882707 0 CFG=1
M  V30 28 C 7.508021 6.646648 -19.763655 0
M  V30 29 C 5.720058 5.636478 -13.138109 0
M  V30 30 C 7.758140 6.076226 -14.238805 0 CFG=2
M  V30 31 C 7.533522 5.132284 -21.734847 0
M  V30 32 C 7.740363 5.743536 -11.673512 0 CFG=1
M  V30 33 C 14.072459 6.228513 -17.278448 0
M  V30 34 C 8.836981 5.747281 -22.311895 0
M  V30 35 C 6.734046 5.830294 -18.805306 0 CFG=1
M  V30 36 O 6.377568 4.046822 -10.415847 0
M  V30 37 C 7.586463 3.736766 -13.308949 0
M  V30 38 O 12.573831 7.390501 -18.717750 0
M  V30 39 C 7.209144 5.234141 -13.065098 0 CFG=1
M  V30 40 C 8.975488 3.804028 -16.557955 0
M  V30 41 C 7.909785 4.532955 -7.985123 0
M  V30 42 C 4.595055 7.739386 -17.074129 0
M  V30 43 C 7.022482 5.300770 -10.363754 0 CFG=1
M  V30 44 H 12.061259 4.738061 -23.221672 0
M  V30 45 H 11.285610 6.284926 -23.350919 0
M  V30 46 H 9.978666 5.689854 -16.165179 0
M  V30 47 H 10.313026 4.417148 -15.024278 0
M  V30 48 H 8.252734 6.359399 -8.936099 0
M  V30 49 H 9.791004 2.754669 -19.973455 0
M  V30 50 H 9.819737 4.496489 -20.013367 0
M  V30 51 H 3.375089 6.731898 -18.397737 0
M  V30 52 H 12.742756 6.589682 -21.534292 0
M  V30 53 H 11.226887 6.306981 -20.723051 0
M  V30 54 H 7.027624 8.010722 -14.979388 0
M  V30 55 H 7.744142 8.073577 -13.387052 0
M  V30 56 H 9.754476 4.369632 -23.638812 0
M  V30 57 H 13.563275 4.371151 -21.104008 0
M  V30 58 H 4.975453 5.190116 -17.865929 0
M  V30 59 H 12.161643 2.535056 -20.380897 0
M  V30 60 H 12.323570 4.373354 -16.113415 0
M  V30 61 H 11.517039 3.243933 -17.114148 0
M  V30 62 H 12.094622 6.930721 -16.822456 0
M  V30 63 H 5.345274 8.750122 -19.582243 0
M  V30 64 H 4.405239 7.639938 -20.586295 0
M  V30 65 H 3.587358 8.800341 -19.583409 0
M  V30 66 H 13.389616 3.862439 -18.748034 0
M  V30 67 H 6.175433 3.007329 -14.723513 0
M  V30 68 H 7.691454 2.181443 -14.805815 0
M  V30 69 H 5.808822 4.221886 -20.069939 0
M  V30 70 H 6.260036 5.682714 -15.765273 0
M  V30 71 H 7.775405 6.169473 -16.392706 0
M  V30 72 H 4.975416 7.484582 -14.071061 0
M  V30 73 H 5.651650 7.710652 -12.471170 0
M  V30 74 H 10.268594 5.562906 -9.471749 0
M  V30 75 H 9.694831 3.943776 -9.954701 0
M  V30 76 H 10.848879 5.525192 -18.464897 0
M  V30 77 H 6.937019 3.764741 -16.667840 0
M  V30 78 H 8.572818 6.426848 -19.711367 0
M  V30 79 H 7.342856 7.716696 -19.686677 0
M  V30 80 H 5.202086 5.119798 -13.945632 0
M  V30 81 H 5.150636 5.406288 -12.240213 0
M  V30 82 H 8.840502 6.091474 -14.200334 0
M  V30 83 H 6.898600 4.767721 -22.542716 0
M  V30 84 H 7.778168 4.251354 -21.144020 0
M  V30 85 H 7.682774 6.829474 -11.651301 0
M  V30 86 H 14.172409 5.562268 -16.422084 0
M  V30 87 H 14.648853 5.803141 -18.100915 0
M  V30 88 H 14.547382 7.170343 -17.001962 0
M  V30 89 H 9.247355 6.511428 -21.662353 0
M  V30 90 H 8.590505 6.300809 -23.218739 0
M  V30 91 H 7.305688 5.048539 -18.326582 0
M  V30 92 H 5.847452 3.988636 -9.630271 0
M  V30 93 H 8.660998 3.607549 -13.186568 0
M  V30 94 H 7.134147 3.089622 -12.560775 0
M  V30 95 H 13.048001 7.025384 -19.448900 0
M  V30 96 H 7.375435 3.593971 -8.116207 0
M  V30 97 H 8.889151 4.291247 -7.585037 0
M  V30 98 H 7.375458 5.130196 -7.245688 0
M  V30 99 H 5.525265 8.302801 -17.000531 0
M  V30 100 H 3.764481 8.390205 -16.808862 0
M  V30 101 H 4.601193 6.969488 -16.307060 0
M  V30 102 H 6.216700 5.990213 -10.124492 0
M  V30 103 H 6.252970 6.753195 -21.379300 0
M  V30 END ATOM
M  V30 BEGIN BOND
M  V30 1 1 7 1
M  V30 2 1 9 1
M  V30 3 1 10 7
M  V30 4 1 11 6
M  V30 5 1 12 4
M  V30 6 1 12 10
M  V30 7 1 13 2
M  V30 8 1 15 6
M  V30 9 1 16 10
M  V30 10 1 16 12
M  V30 11 1 18 11
M  V30 12 1 20 8
M  V30 13 1 21 3
M  V30 14 1 23 4
M  V30 15 1 23 9
M  V30 16 1 24 18
M  V30 17 1 25 13
M  V30 18 1 25 14
M  V30 19 1 25 16
M  V30 20 1 26 21
M  V30 21 2 26 22
M  V30 22 1 27 17
M  V30 23 1 27 19
M  V30 24 1 28 24
M  V30 25 1 29 20
M  V30 26 1 30 8
M  V30 27 1 30 19
M  V30 28 1 31 24
M  V30 29 1 32 26
M  V30 30 1 33 14
M  V30 31 1 34 9
M  V30 32 1 34 31
M  V30 33 1 35 11
M  V30 34 1 35 18
M  V30 35 1 35 28
M  V30 36 1 37 17
M  V30 37 1 38 14
M  V30 38 1 39 29 CFG=1
M  V30 39 1 39 30
M  V30 40 1 39 32
M  V30 41 1 39 37
M  V30 42 1 40 2
M  V30 43 2 40 5
M  V30 44 1 40 27
M  V30 45 1 41 3
M  V30 46 1 42 6
M  V30 47 1 43 3
M  V30 48 1 43 32
M  V30 49 1 43 36
M  V30 50 1 44 1
M  V30 51 1 45 1
M  V30 52 1 46 2
M  V30 53 1 47 2
M  V30 54 1 3 48 CFG=1
M  V30 55 1 49 4
M  V30 56 1 50 4
M  V30 57 1 51 6
M  V30 58 1 52 7
M  V30 59 1 53 7
M  V30 60 1 54 8
M  V30 61 1 55 8
M  V30 62 1 9 56 CFG=3
M  V30 63 1 10 57 CFG=3
M  V30 64 1 11 58 CFG=1
M  V30 65 1 12 59 CFG=3
M  V30 66 1 60 13
M  V30 67 1 61 13
M  V30 68 1 14 62 CFG=1
M  V30 69 1 63 15
M  V30 70 1 64 15
M  V30 71 1 65 15
M  V30 72 1 16 66 CFG=1
M  V30 73 1 67 17
M  V30 74 1 68 17
M  V30 75 1 18 69 CFG=3
M  V30 76 1 70 19
M  V30 77 1 71 19
M  V30 78 1 72 20
M  V30 79 1 73 20
M  V30 80 1 74 21
M  V30 81 1 75 21
M  V30 82 1 25 76 CFG=3
M  V30 83 1 27 77 CFG=3
M  V30 84 1 78 28
M  V30 85 1 79 28
M  V30 86 1 80 29
M  V30 87 1 81 29
M  V30 88 1 30 82 CFG=3
M  V30 89 1 83 31
M  V30 90 1 84 31
M  V30 91 1 32 85 CFG=3
M  V30 92 1 86 33
M  V30 93 1 87 33
M  V30 94 1 88 33
M  V30 95 1 89 34
M  V30 96 1 90 34
M  V30 97 1 35 91 CFG=1
M  V30 98 1 92 36
M  V30 99 1 93 37
M  V30 100 1 94 37
M  V30 101 1 95 38
M  V30 102 1 96 41
M  V30 103 1 97 41
M  V30 104 1 98 41
M  V30 105 1 99 42
M  V30 106 1 100 42
M  V30 107 1 101 42
M  V30 108 1 43 102 CFG=1
M  V30 109 1 24 103 CFG=3
M  V30 END BOND
M  V30 END CTAB
M  END
>  <i_epik_Tot_Q>  (1) 
1

>  <i_epik_Tot_abs_Q>  (1) 
1

>  <i_i_glide_confnum>  (1) 
2635

>  <i_i_glide_lignum>  (1) 
53

>  <i_i_glide_posenum>  (1) 
69

>  <i_i_glide_rotatable_bonds>  (1) 
13

>  <i_lp_mmshare_version>  (1) 
72125

>  <i_m_source_file_index>  (1) 
32

>  <i_f3d_flags>  (1) 
0

>  <num_sample>  (1) 
100

>  <b_lp_Chiralities_Consistent>  (1) 
1

>  <r_epik_Charging_Adjusted_Penalty>  (1) 
0.00082013732971917403

>  <r_epik_Ionization_Penalty>  (1) 
0.00082046965520535795

>  <r_epik_Ionization_Penalty_Charging>  (1) 
0.00082013732971917403

>  <r_epik_Ionization_Penalty_Neutral>  (1) 
3.3232548618397322e-07

>  <r_epik_State_Penalty>  (1) 
-0

>  <r_glide_ring_energy>  (1) 
1.7158683604837299

>  <r_i_docking_score>  (1) 
-3.2491095268678478

>  <r_i_glide_ecoul>  (1) 
-3.344769628232406

>  <r_i_glide_eff_state_penalty>  (1) 
-0

>  <r_i_glide_einternal>  (1) 
26.332898741286343

>  <r_i_glide_emodel>  (1) 
-10.732604677029983

>  <r_i_glide_emodel_strain>  (1) 
9.7084990128010986

>  <r_i_glide_energy>  (1) 
-28.540350970080262

>  <r_i_glide_erotb>  (1) 
0.46956192147436254

>  <r_i_glide_esite>  (1) 
0

>  <r_i_glide_evdw>  (1) 
-25.195581341847856

>  <r_i_glide_gscore>  (1) 
-3.2491095268678478

>  <r_i_glide_gscore_strain>  (1) 
1.4271247532002747

>  <r_i_glide_hbond>  (1) 
-0.31779709334571399

>  <r_i_glide_ligand_efficiency>  (1) 
-0.075560686671345301

>  <r_i_glide_ligand_efficiency_ln>  (1) 
-0.68241398133179532

>  <r_i_glide_ligand_efficiency_sa>  (1) 
-0.26471916312588017

>  <r_i_glide_lipo>  (1) 
-2.1705836406138648

>  <r_i_glide_metal>  (1) 
-0

>  <r_i_glide_rewards>  (1) 
-0.89592095625565205

>  <r_lp_Energy>  (1) 
46.113288999999995

>  <r_lp_tautomer_probability>  (1) 
1

>  <s_epik_cmdline>  (1) 
J2VwaWtfcHl0aG9uJywgJy1waHQnLCAnMS4wJywgJy1waCcsICc3LjQnLCAnLXRuJywgJzgnLCAnLW1hJywgJzUwMCcsICctaW1hZScsICc8aW5maWxlLm1hZT4nLCAnLW9tYWUnLCAnPG91dGZpbGUubWFlPic=

>  <s_epik_input>  (1) 
W0NIM11bQ0hdKFtDSDNdKVtDQEBIXTFbQ0BASF0oW0NAQEhdMTIpW0NIMl1OMltDSDJdW0NIMl1bQ0BASF0oW0NIMl1bQ0gyXTMpT1tDSDJdW0NAQEhdKFtDQEBIXTM0KVtDQEBIXTRbQ0BIXShbQ0BASF0oW0NIM10pW09IXSlbQ0gyXVtDSDJdQyg9TylbQ0BASF0oW0NIMl1bQ0gyXTUpW0NIMl1bQ0BASF0oW0NIMl1bQ0gyXVtDSDJdNilbQ0BdNTZbQ0BASF0oW0NASF03W09IXSlDKD1PKVtDSDJdW0NAQEhdN1tDSDNd

>  <s_glide_docking_method>  (1) 
confgen

>  <s_i_glide_gridfile>  (1) 
gpcr_drd2_6luq_protein_autoprepared_prepared

>  <s_lp_Force_Field>  (1) 
S-OPLS

>  <s_lp_Variant>  (1) 
DiffSBDD_31-2

>  <s_m_source_file>  (1) 
generated_generic_title2_ligand_DiffSBDD_2026-06-23_prepared.sdf

>  <GenAI_Model>  (1) 
DiffSBDD

>  <Protein>  (1) 
generic_title2

$$$$
DiffSBDD_24
     RDKit          3D

  0  0  0  0  0  0  0  0  0  0999 V3000
M  V30 BEGIN CTAB
M  V30 COUNTS 68 69 0 0 1
M  V30 BEGIN ATOM
M  V30 1 C 12.636611 2.846039 -19.215388 0
M  V30 2 C 16.184565 8.087629 -22.134671 0
M  V30 3 C 15.132251 9.127709 -18.055322 0
M  V30 4 O 15.036745 8.319181 -21.393465 0
M  V30 5 C 13.851829 7.335419 -16.717676 0
M  V30 6 C 17.476700 2.867920 -20.720096 0
M  V30 7 C 15.037309 2.788307 -20.012829 0 CFG=2
M  V30 8 C 15.800090 9.407834 -19.402267 0
M  V30 9 C 17.365433 8.748977 -21.977490 0
M  V30 10 C 14.910216 7.622660 -17.805050 0
M  V30 11 C 14.817080 4.240802 -17.307936 0 CFG=1
M  V30 12 C 12.986045 0.747388 -17.754180 0
M  V30 13 C 11.546502 0.228453 -17.878712 0
M  V30 14 C 17.126261 9.580042 -19.559828 0
M  V30 15 C 16.094476 2.261890 -21.020411 0
M  V30 16 O 15.375410 2.285763 -18.716407 0
M  V30 17 C 14.872693 9.473767 -20.589672 0
M  V30 18 C 13.120941 2.285917 -17.863898 0 CFG=1
M  V30 19 C 13.980120 4.776249 -16.126854 0
M  V30 20 C 14.231829 6.238225 -15.701087 0
M  V30 21 C 17.660287 9.855044 -20.963113 0
M  V30 22 C 18.031894 9.495951 -18.396816 0
M  V30 23 C 13.576941 2.414028 -20.346368 0
M  V30 24 O 15.746095 2.710375 -22.315008 0
M  V30 25 C 19.365646 9.671344 -18.469894 0
M  V30 26 O 16.175523 4.390305 -16.937229 0
M  V30 27 C 14.586683 2.727766 -17.605089 0 CFG=2
M  V30 28 C 16.179456 0.723615 -21.068476 0
M  V30 29 H 11.615138 2.533463 -19.429178 0
M  V30 30 H 12.605793 3.935077 -19.168587 0
M  V30 31 H 16.033331 7.310642 -22.869624 0
M  V30 32 H 14.174985 9.640564 -18.070389 0
M  V30 33 H 15.635993 9.597991 -17.214880 0
M  V30 34 H 12.889423 7.111310 -17.179453 0
M  V30 35 H 13.681098 8.251179 -16.151447 0
M  V30 36 H 17.833646 2.563575 -19.737174 0
M  V30 37 H 18.222949 2.551731 -21.450021 0
M  V30 38 H 17.446091 3.958134 -20.730946 0
M  V30 39 H 15.113072 3.874917 -20.013361 0
M  V30 40 H 18.190033 8.482338 -22.622312 0
M  V30 41 H 15.869043 7.174724 -17.545513 0
M  V30 42 H 14.597335 7.138225 -18.731119 0
M  V30 43 H 14.610797 4.852537 -18.182016 0
M  V30 44 H 13.617932 0.246717 -18.487933 0
M  V30 45 H 13.373357 0.434873 -16.785200 0
M  V30 46 H 11.492703 -0.823263 -17.599963 0
M  V30 47 H 10.868720 0.775453 -17.223175 0
M  V30 48 H 11.173455 0.317270 -18.898829 0
M  V30 49 H 13.834301 9.512632 -20.261343 0
M  V30 50 H 15.028511 10.379979 -21.175522 0
M  V30 51 H 12.482117 2.689510 -17.080257 0
M  V30 52 H 12.917534 4.679582 -16.345624 0
M  V30 53 H 14.175414 4.140206 -15.261929 0
M  V30 54 H 13.629273 6.405733 -14.807199 0
M  V30 55 H 15.258223 6.372725 -15.364567 0
M  V30 56 H 17.231537 10.786262 -21.334561 0
M  V30 57 H 18.728584 10.025768 -21.011932 0
M  V30 58 H 17.615242 9.280388 -17.428866 0
M  V30 59 H 13.269880 2.887829 -21.279395 0
M  V30 60 H 13.478768 1.341766 -20.505884 0
M  V30 61 H 16.401317 2.408054 -22.924891 0
M  V30 62 H 19.977635 9.596545 -17.584196 0
M  V30 63 H 19.862401 9.888670 -19.397040 0
M  V30 64 H 16.311520 5.296977 -16.706218 0
M  V30 65 H 14.945997 2.179017 -16.732911 0
M  V30 66 H 16.416779 0.308900 -20.088215 0
M  V30 67 H 15.244613 0.271269 -21.397897 0
M  V30 68 H 16.957281 0.390557 -21.756544 0
M  V30 END ATOM
M  V30 BEGIN BOND
M  V30 1 1 4 2
M  V30 2 1 8 3
M  V30 3 2 9 2
M  V30 4 1 10 3
M  V30 5 1 10 5
M  V30 6 1 13 12
M  V30 7 2 14 8
M  V30 8 1 15 6
M  V30 9 1 15 7
M  V30 10 1 16 7
M  V30 11 1 17 4
M  V30 12 1 17 8
M  V30 13 1 18 1
M  V30 14 1 18 12
M  V30 15 1 19 11
M  V30 16 1 20 5
M  V30 17 1 20 19
M  V30 18 1 21 9
M  V30 19 1 21 14
M  V30 20 1 22 14
M  V30 21 1 23 1
M  V30 22 1 23 7
M  V30 23 1 24 15
M  V30 24 2 25 22
M  V30 25 1 26 11
M  V30 26 1 27 11
M  V30 27 1 27 16
M  V30 28 1 27 18
M  V30 29 1 28 15
M  V30 30 1 29 1
M  V30 31 1 30 1
M  V30 32 1 31 2
M  V30 33 1 32 3
M  V30 34 1 33 3
M  V30 35 1 34 5
M  V30 36 1 35 5
M  V30 37 1 36 6
M  V30 38 1 37 6
M  V30 39 1 38 6
M  V30 40 1 7 39 CFG=1
M  V30 41 1 40 9
M  V30 42 1 41 10
M  V30 43 1 42 10
M  V30 44 1 11 43 CFG=3
M  V30 45 1 44 12
M  V30 46 1 45 12
M  V30 47 1 46 13
M  V30 48 1 47 13
M  V30 49 1 48 13
M  V30 50 1 49 17
M  V30 51 1 50 17
M  V30 52 1 18 51 CFG=1
M  V30 53 1 52 19
M  V30 54 1 53 19
M  V30 55 1 54 20
M  V30 56 1 55 20
M  V30 57 1 56 21
M  V30 58 1 57 21
M  V30 59 1 58 22
M  V30 60 1 59 23
M  V30 61 1 60 23
M  V30 62 1 61 24
M  V30 63 1 62 25
M  V30 64 1 63 25
M  V30 65 1 64 26
M  V30 66 1 27 65 CFG=1
M  V30 67 1 66 28
M  V30 68 1 67 28
M  V30 69 1 68 28
M  V30 END BOND
M  V30 END CTAB
M  END
>  <i_epik_Tot_Q>  (1) 
0

>  <i_epik_Tot_abs_Q>  (1) 
0

>  <i_i_glide_confnum>  (1) 
745

>  <i_i_glide_lignum>  (1) 
42

>  <i_i_glide_posenum>  (1) 
176

>  <i_i_glide_rotatable_bonds>  (1) 
12

>  <i_lp_mmshare_version>  (1) 
72125

>  <i_m_source_file_index>  (1) 
25

>  <i_f3d_flags>  (1) 
0

>  <num_sample>  (1) 
100

>  <b_lp_Chiralities_Consistent>  (1) 
1

>  <r_epik_Charging_Adjusted_Penalty>  (1) 
0

>  <r_epik_Ionization_Penalty>  (1) 
1.101119789916782e-07

>  <r_epik_Ionization_Penalty_Charging>  (1) 
0

>  <r_epik_Ionization_Penalty_Neutral>  (1) 
1.101119789916782e-07

>  <r_epik_State_Penalty>  (1) 
-0

>  <r_glide_ring_energy>  (1) 
1.2053301093634785

>  <r_i_docking_score>  (1) 
-3.2463411057254934

>  <r_i_glide_ecoul>  (1) 
-5.1113861119521546

>  <r_i_glide_eff_state_penalty>  (1) 
-0

>  <r_i_glide_einternal>  (1) 
4.2002933672985989

>  <r_i_glide_emodel>  (1) 
-28.845039954323415

>  <r_i_glide_emodel_strain>  (1) 
0.54418629373458316

>  <r_i_glide_energy>  (1) 
-26.706008801088977

>  <r_i_glide_erotb>  (1) 
1.1402384900908482

>  <r_i_glide_esite>  (1) 
0

>  <r_i_glide_evdw>  (1) 
-21.594622689136823

>  <r_i_glide_gscore>  (1) 
-3.2463411057254934

>  <r_i_glide_gscore_strain>  (1) 
0

>  <r_i_glide_hbond>  (1) 
-0.32000000000000001

>  <r_i_glide_ligand_efficiency>  (1) 
-0.11594075377591048

>  <r_i_glide_ligand_efficiency_ln>  (1) 
-0.74935084391807805

>  <r_i_glide_ligand_efficiency_sa>  (1) 
-0.3520644143068814

>  <r_i_glide_lipo>  (1) 
-1.4877587263848586

>  <r_i_glide_metal>  (1) 
-0

>  <r_i_glide_rewards>  (1) 
-0.73238181818181924

>  <r_lp_Energy>  (1) 
28.105841999999999

>  <r_lp_tautomer_probability>  (1) 
1

>  <s_epik_cmdline>  (1) 
J2VwaWtfcHl0aG9uJywgJy1waHQnLCAnMS4wJywgJy1waCcsICc3LjQnLCAnLXRuJywgJzgnLCAnLW1hJywgJzUwMCcsICctaW1hZScsICc8aW5maWxlLm1hZT4nLCAnLW9tYWUnLCAnPG91dGZpbGUubWFlPic=

>  <s_epik_input>  (1) 
W0NIM11DKFtPSF0pKFtDSDNdKVtDQEBIXTFPW0NASF0oW0NAQEhdKFtDSDJdW0NIMl0xKVtDSDJdW0NIM10pW0NASF0oW09IXSlbQ0gyXVtDSDJdW0NIMl1bQ0gyXVtDSDJdQzI9QyhbQ0hdPVtDSDJdKVtDSDJdW0NIXT1bQ0hdT1tDSDJdMg==

>  <s_glide_docking_method>  (1) 
confgen

>  <s_i_glide_gridfile>  (1) 
gpcr_drd2_6luq_protein_autoprepared_prepared

>  <s_lp_Force_Field>  (1) 
S-OPLS

>  <s_lp_Variant>  (1) 
DiffSBDD_24-1

>  <s_m_source_file>  (1) 
generated_generic_title2_ligand_DiffSBDD_2026-06-23_prepared.sdf

>  <GenAI_Model>  (1) 
DiffSBDD

>  <Protein>  (1) 
generic_title2

$$$$
DiffSBDD_58
     RDKit          3D

  0  0  0  0  0  0  0  0  0  0999 V3000
M  V30 BEGIN CTAB
M  V30 COUNTS 61 64 0 0 1
M  V30 BEGIN ATOM
M  V30 1 C 18.323573 8.947817 -18.460642 0
M  V30 2 C 14.934405 6.991124 -19.005158 0
M  V30 3 O 18.575409 6.373763 -17.271694 0
M  V30 4 F 18.175410 9.308933 -17.185026 0
M  V30 5 F 19.596046 8.609133 -18.671128 0
M  V30 6 F 18.049914 9.990227 -19.240573 0
M  V30 7 C 17.375903 7.786873 -18.828816 0 CFG=1
M  V30 8 C 7.634763 2.592064 -16.054109 0
M  V30 9 C 7.442165 4.227952 -17.811393 0
M  V30 10 C 6.898309 2.037445 -19.047024 0
M  V30 11 C 8.356033 3.675628 -16.776256 0 CFG=2
M  V30 12 C 12.773921 4.911058 -18.205014 0 CFG=2
M  V30 13 C 7.531742 1.059810 -18.066048 0
M  V30 14 C 15.258608 5.694810 -18.214817 0 CFG=1
M  V30 15 C 17.660448 6.473874 -18.086144 0
M  V30 16 O 6.445526 1.597793 -20.101280 0
M  V30 17 C 14.256505 4.532824 -18.497827 0 CFG=1
M  V30 18 C 17.094764 4.723600 -19.801061 0
M  V30 19 C 16.749697 5.289806 -18.407090 0 CFG=2
M  V30 20 C 12.257367 2.466240 -17.661206 0
M  V30 21 C 10.497942 4.320758 -17.697656 0 CFG=1
M  V30 22 O 9.625528 3.272717 -17.285175 0
M  V30 23 C 7.837429 1.313580 -16.774554 0
M  V30 24 C 11.001321 5.190227 -16.531391 0
M  V30 25 C 12.478612 5.496150 -16.813146 0
M  V30 26 C 6.800760 3.537187 -18.785026 0
M  V30 27 C 15.886074 8.150219 -18.647157 0
M  V30 28 C 13.670860 2.083156 -18.089891 0
M  V30 29 C 11.767712 3.753972 -18.354145 0 CFG=1
M  V30 30 C 14.642108 3.221939 -17.767744 0
M  V30 31 H 14.976094 6.796870 -20.077245 0
M  V30 32 H 13.918871 7.327132 -18.800201 0
M  V30 33 H 17.536257 7.572007 -19.885302 0
M  V30 34 H 6.575410 2.796001 -15.897184 0
M  V30 35 H 8.074233 2.473566 -15.062951 0
M  V30 36 H 7.289874 5.296358 -17.763291 0
M  V30 37 H 8.501836 4.474775 -16.048609 0
M  V30 38 H 12.467583 5.661032 -18.935186 0
M  V30 39 H 7.715809 0.064681 -18.443373 0
M  V30 40 H 15.152672 5.943211 -17.157295 0
M  V30 41 H 14.305791 4.317984 -19.566156 0
M  V30 42 H 18.165761 4.538981 -19.896538 0
M  V30 43 H 16.596591 3.772678 -19.985241 0
M  V30 44 H 16.806529 5.402468 -20.603498 0
M  V30 45 H 16.995219 4.530069 -17.667617 0
M  V30 46 H 11.570656 1.643328 -17.862783 0
M  V30 47 H 12.258283 2.611182 -16.583700 0
M  V30 48 H 9.998495 4.959007 -18.428421 0
M  V30 49 H 8.266924 0.516038 -16.185681 0
M  V30 50 H 10.409480 6.100014 -16.439319 0
M  V30 51 H 10.918922 4.655738 -15.585025 0
M  V30 52 H 12.685073 6.565902 -16.769027 0
M  V30 53 H 13.094017 5.017025 -16.051070 0
M  V30 54 H 6.183840 4.094773 -19.474100 0
M  V30 55 H 15.640434 9.014090 -19.265713 0
M  V30 56 H 15.706320 8.459769 -17.616318 0
M  V30 57 H 13.691971 1.858084 -19.156873 0
M  V30 58 H 13.978811 1.174628 -17.571047 0
M  V30 59 H 11.589319 3.536256 -19.408000 0
M  V30 60 H 15.635932 2.888547 -18.058289 0
M  V30 61 H 14.676975 3.384234 -16.689716 0
M  V30 END ATOM
M  V30 BEGIN BOND
M  V30 1 1 4 1
M  V30 2 1 5 1
M  V30 3 1 6 1
M  V30 4 1 7 1
M  V30 5 1 11 8
M  V30 6 1 11 9
M  V30 7 1 13 10
M  V30 8 1 14 2
M  V30 9 2 15 3
M  V30 10 1 15 7
M  V30 11 2 16 10
M  V30 12 1 17 12
M  V30 13 1 17 14
M  V30 14 1 19 14
M  V30 15 1 19 15
M  V30 16 1 19 18
M  V30 17 1 22 11
M  V30 18 1 22 21
M  V30 19 1 23 8
M  V30 20 2 23 13
M  V30 21 1 24 21
M  V30 22 1 25 12
M  V30 23 1 25 24
M  V30 24 2 26 9
M  V30 25 1 26 10
M  V30 26 1 27 2
M  V30 27 1 27 7
M  V30 28 1 28 20
M  V30 29 1 29 12
M  V30 30 1 29 20
M  V30 31 1 29 21
M  V30 32 1 30 17
M  V30 33 1 30 28
M  V30 34 1 31 2
M  V30 35 1 32 2
M  V30 36 1 7 33 CFG=3
M  V30 37 1 34 8
M  V30 38 1 35 8
M  V30 39 1 36 9
M  V30 40 1 11 37 CFG=1
M  V30 41 1 12 38 CFG=3
M  V30 42 1 39 13
M  V30 43 1 14 40 CFG=1
M  V30 44 1 17 41 CFG=3
M  V30 45 1 42 18
M  V30 46 1 43 18
M  V30 47 1 44 18
M  V30 48 1 19 45 CFG=1
M  V30 49 1 46 20
M  V30 50 1 47 20
M  V30 51 1 21 48 CFG=3
M  V30 52 1 49 23
M  V30 53 1 50 24
M  V30 54 1 51 24
M  V30 55 1 52 25
M  V30 56 1 53 25
M  V30 57 1 54 26
M  V30 58 1 55 27
M  V30 59 1 56 27
M  V30 60 1 57 28
M  V30 61 1 58 28
M  V30 62 1 29 59 CFG=3
M  V30 63 1 60 30
M  V30 64 1 61 30
M  V30 END BOND
M  V30 END CTAB
M  END
>  <i_epik_Tot_Q>  (1) 
0

>  <i_epik_Tot_abs_Q>  (1) 
0

>  <i_i_glide_confnum>  (1) 
8

>  <i_i_glide_lignum>  (1) 
92

>  <i_i_glide_posenum>  (1) 
275

>  <i_i_glide_rotatable_bonds>  (1) 
4

>  <i_lp_mmshare_version>  (1) 
72125

>  <i_m_source_file_index>  (1) 
59

>  <i_f3d_flags>  (1) 
0

>  <num_sample>  (1) 
100

>  <b_lp_Chiralities_Consistent>  (1) 
1

>  <r_epik_Charging_Adjusted_Penalty>  (1) 
0

>  <r_epik_Ionization_Penalty>  (1) 
2.3521434305966632e-11

>  <r_epik_Ionization_Penalty_Charging>  (1) 
0

>  <r_epik_Ionization_Penalty_Neutral>  (1) 
2.3521434305966632e-11

>  <r_epik_State_Penalty>  (1) 
-0

>  <r_glide_ring_energy>  (1) 
0

>  <r_i_docking_score>  (1) 
-3.2341899245030419

>  <r_i_glide_ecoul>  (1) 
0.10698385504827476

>  <r_i_glide_eff_state_penalty>  (1) 
-0

>  <r_i_glide_einternal>  (1) 
0.22206122212632273

>  <r_i_glide_emodel>  (1) 
-31.749596071231011

>  <r_i_glide_emodel_strain>  (1) 
0

>  <r_i_glide_energy>  (1) 
-26.388974621133123

>  <r_i_glide_erotb>  (1) 
0.33010280432778499

>  <r_i_glide_esite>  (1) 
0

>  <r_i_glide_evdw>  (1) 
-26.495958476181396

>  <r_i_glide_gscore>  (1) 
-3.2341899245030419

>  <r_i_glide_gscore_strain>  (1) 
0

>  <r_i_glide_hbond>  (1) 
0

>  <r_i_glide_ligand_efficiency>  (1) 
-0.10780633081676806

>  <r_i_glide_ligand_efficiency_ln>  (1) 
-0.73484319016876676

>  <r_i_glide_ligand_efficiency_sa>  (1) 
-0.33497933546147696

>  <r_i_glide_lipo>  (1) 
-0.96519136968997588

>  <r_i_glide_metal>  (1) 
-0

>  <r_i_glide_rewards>  (1) 
-1.2903510135890222

>  <r_lp_Energy>  (1) 
29.975919999999999

>  <r_lp_tautomer_probability>  (1) 
1

>  <s_epik_cmdline>  (1) 
J2VwaWtfcHl0aG9uJywgJy1waHQnLCAnMS4wJywgJy1waCcsICc3LjQnLCAnLXRuJywgJzgnLCAnLW1hJywgJzUwMCcsICctaW1hZScsICc8aW5maWxlLm1hZT4nLCAnLW9tYWUnLCAnPG91dGZpbGUubWFlPic=

>  <s_epik_input>  (1) 
RkMoRikoRilbQ0BIXTFDKD1PKVtDQEhdKFtDSDNdKVtDQEBIXShbQ0gyXVtDSDJdMSlbQ0BIXTJbQ0gyXVtDSDJdW0NIMl1bQ0BIXShbQ0BIXTIzKVtDQEhdKFtDSDJdW0NIMl0zKU9bQ0BASF0oW0NIXT1bQ0hdNClbQ0gyXVtDSF09W0NIXUM0PU8=

>  <s_glide_docking_method>  (1) 
confgen

>  <s_i_glide_gridfile>  (1) 
gpcr_drd2_6luq_protein_autoprepared_prepared

>  <s_lp_Force_Field>  (1) 
S-OPLS

>  <s_lp_Variant>  (1) 
DiffSBDD_58-1

>  <s_m_source_file>  (1) 
generated_generic_title2_ligand_DiffSBDD_2026-06-23_prepared.sdf

>  <GenAI_Model>  (1) 
DiffSBDD

>  <Protein>  (1) 
generic_title2

$$$$
DiffSBDD_2
     RDKit          3D

  0  0  0  0  0  0  0  0  0  0999 V3000
M  V30 BEGIN CTAB
M  V30 COUNTS 71 75 0 0 1
M  V30 BEGIN ATOM
M  V30 1 C 8.450111 5.468990 -13.054912 0
M  V30 2 N 8.987104 2.264529 -17.328274 0 CFG=2 CHG=1
M  V30 3 C 8.033798 -0.492467 -19.026240 0
M  V30 4 C 13.396209 1.323768 -17.919343 0
M  V30 5 C 10.173389 1.589276 -21.506670 0
M  V30 6 C 9.214928 6.090394 -9.319162 0 CFG=1
M  V30 7 C 12.368537 1.174586 -20.284012 0
M  V30 8 O 7.500313 5.556875 -16.476450 0
M  V30 9 C 8.552699 5.590220 -10.598641 0
M  V30 10 C 7.716769 2.160543 -15.203323 0 CFG=2
M  V30 11 C 10.847682 0.938434 -18.244338 0
M  V30 12 C 7.775593 4.362102 -16.380030 0
M  V30 13 C 7.413584 1.706507 -20.064978 0
M  V30 14 C 8.713953 5.780683 -7.921209 0
M  V30 15 O 9.737023 4.998808 -8.545145 0
M  V30 16 O 6.658878 1.395658 -14.654442 0
M  V30 17 O 10.873938 -0.096966 -17.585038 0
M  V30 18 C 10.329560 6.808712 -11.985365 0
M  V30 19 C 10.665839 7.548775 -10.707864 0
M  V30 20 C 11.459605 1.911983 -21.260875 0
M  V30 21 C 13.980475 -0.097682 -17.924917 0
M  V30 22 F 10.527727 7.944339 -8.446654 0
M  V30 23 C 6.762036 4.341029 -11.708867 0
M  V30 24 C 8.576269 3.678691 -17.506159 0
M  V30 25 C 9.083242 5.931581 -11.877838 0
M  V30 26 C 8.600487 0.842389 -19.582001 0
M  V30 27 C 12.143849 1.561624 -18.801528 0 CFG=1
M  V30 28 C 7.286958 4.675756 -12.968739 0
M  V30 29 C 7.389554 4.790251 -10.534300 0
M  V30 30 C 9.534383 1.661897 -18.593568 0 CFG=1
M  V30 31 C 6.575131 4.200482 -14.230727 0
M  V30 32 N 7.393205 3.606652 -15.312862 0
M  V30 33 C 10.161393 7.218282 -9.517410 0
M  V30 34 C 9.429886 0.437868 -20.842309 0
M  V30 35 C 8.008318 1.483949 -16.553983 0
M  V30 36 H 8.851667 5.735080 -14.020749 0
M  V30 37 H 7.556499 -1.065085 -19.822912 0
M  V30 38 H 8.804633 -1.138697 -18.608481 0
M  V30 39 H 7.261284 -0.366339 -18.273123 0
M  V30 40 H 14.176218 2.014866 -18.240482 0
M  V30 41 H 13.172441 1.603223 -16.888413 0
M  V30 42 H 9.607288 2.179713 -22.213088 0
M  V30 43 H 13.393175 1.412096 -20.572706 0
M  V30 44 H 12.279699 0.096416 -20.421073 0
M  V30 45 H 8.572812 2.059480 -14.536263 0
M  V30 46 H 6.831959 1.186477 -20.827490 0
M  V30 47 H 6.720088 1.947898 -19.261258 0
M  V30 48 H 7.746983 2.646700 -20.504652 0
M  V30 49 H 9.063122 6.381283 -7.084007 0
M  V30 50 H 7.775393 5.259466 -7.765413 0
M  V30 51 H 7.011563 0.734212 -14.075271 0
M  V30 52 H 11.180989 6.207020 -12.304684 0
M  V30 53 H 10.155474 7.554921 -12.758999 0
M  V30 54 H 11.353020 8.376961 -10.785006 0
M  V30 55 H 11.898238 2.754443 -21.776153 0
M  V30 56 H 14.893743 -0.138853 -17.330483 0
M  V30 57 H 13.284658 -0.809773 -17.490802 0
M  V30 58 H 14.230120 -0.435289 -18.930965 0
M  V30 59 H 5.868604 3.737307 -11.640398 0
M  V30 60 H 7.964373 3.772066 -18.401712 0
M  V30 61 H 9.470561 4.275695 -17.689990 0
M  V30 62 H 11.984700 2.639807 -18.778053 0
M  V30 63 H 6.971717 4.523885 -9.578775 0
M  V30 64 H 9.841302 2.536177 -19.165603 0
M  V30 65 H 6.018191 5.060720 -14.604510 0
M  V30 66 H 5.775877 3.520740 -13.941418 0
M  V30 67 H 8.779761 -0.002297 -21.599930 0
M  V30 68 H 10.128762 -0.361153 -20.596756 0
M  V30 69 H 8.375031 0.469133 -16.392090 0
M  V30 70 H 7.074634 1.425108 -17.111257 0
M  V30 71 H 9.791856 2.316741 -16.719441 0
M  V30 END ATOM
M  V30 BEGIN BOND
M  V30 1 1 9 6
M  V30 2 2 12 8
M  V30 3 1 14 6
M  V30 4 1 6 15 CFG=1
M  V30 5 1 15 14
M  V30 6 1 16 10
M  V30 7 2 17 11
M  V30 8 1 19 18
M  V30 9 2 20 5
M  V30 10 1 20 7
M  V30 11 1 21 4
M  V30 12 1 24 2
M  V30 13 1 24 12
M  V30 14 1 25 1
M  V30 15 2 25 9
M  V30 16 1 25 18
M  V30 17 1 26 3
M  V30 18 1 26 13
M  V30 19 1 27 4
M  V30 20 1 27 7
M  V30 21 1 27 11
M  V30 22 2 28 1
M  V30 23 1 28 23
M  V30 24 1 29 9
M  V30 25 2 29 23
M  V30 26 1 30 2
M  V30 27 1 30 11
M  V30 28 1 30 26
M  V30 29 1 31 28
M  V30 30 1 32 10
M  V30 31 1 32 12
M  V30 32 1 32 31
M  V30 33 1 33 6
M  V30 34 2 33 19
M  V30 35 1 33 22
M  V30 36 1 34 5
M  V30 37 1 34 26
M  V30 38 1 35 2
M  V30 39 1 35 10
M  V30 40 1 36 1
M  V30 41 1 37 3
M  V30 42 1 38 3
M  V30 43 1 39 3
M  V30 44 1 40 4
M  V30 45 1 41 4
M  V30 46 1 42 5
M  V30 47 1 43 7
M  V30 48 1 44 7
M  V30 49 1 10 45 CFG=1
M  V30 50 1 46 13
M  V30 51 1 47 13
M  V30 52 1 48 13
M  V30 53 1 49 14
M  V30 54 1 50 14
M  V30 55 1 51 16
M  V30 56 1 52 18
M  V30 57 1 53 18
M  V30 58 1 54 19
M  V30 59 1 55 20
M  V30 60 1 56 21
M  V30 61 1 57 21
M  V30 62 1 58 21
M  V30 63 1 59 23
M  V30 64 1 60 24
M  V30 65 1 61 24
M  V30 66 1 27 62 CFG=3
M  V30 67 1 63 29
M  V30 68 1 30 64 CFG=3
M  V30 69 1 65 31
M  V30 70 1 66 31
M  V30 71 1 67 34
M  V30 72 1 68 34
M  V30 73 1 69 35
M  V30 74 1 70 35
M  V30 75 1 2 71 CFG=1
M  V30 END BOND
M  V30 END CTAB
M  END
>  <i_epik_Tot_Q>  (1) 
1

>  <i_epik_Tot_abs_Q>  (1) 
1

>  <i_i_glide_confnum>  (1) 
24

>  <i_i_glide_lignum>  (1) 
5

>  <i_i_glide_posenum>  (1) 
45

>  <i_i_glide_rotatable_bonds>  (1) 
5

>  <i_lp_mmshare_version>  (1) 
72125

>  <i_m_source_file_index>  (1) 
3

>  <i_f3d_flags>  (1) 
0

>  <num_sample>  (1) 
100

>  <b_lp_Chiralities_Consistent>  (1) 
1

>  <r_epik_Charging_Adjusted_Penalty>  (1) 
2.4002963273514464

>  <r_epik_Ionization_Penalty>  (1) 
1.2026340853706476

>  <r_epik_Ionization_Penalty_Charging>  (1) 
1.2001481636757232

>  <r_epik_Ionization_Penalty_Neutral>  (1) 
0.0024859216949244217

>  <r_epik_State_Penalty>  (1) 
1.2001481636757232

>  <r_glide_ring_energy>  (1) 
0

>  <r_i_docking_score>  (1) 
-3.2305422262296606

>  <r_i_glide_ecoul>  (1) 
-2.0858923786336665

>  <r_i_glide_eff_state_penalty>  (1) 
1.2001481636757232

>  <r_i_glide_einternal>  (1) 
9.9942042859126161

>  <r_i_glide_emodel>  (1) 
-39.46288727086791

>  <r_i_glide_emodel_strain>  (1) 
0.27976476570547959

>  <r_i_glide_energy>  (1) 
-36.727696595519021

>  <r_i_glide_erotb>  (1) 
0.26041846348708686

>  <r_i_glide_esite>  (1) 
-0.019170493205385299

>  <r_i_glide_evdw>  (1) 
-34.641804216885355

>  <r_i_glide_gscore>  (1) 
-4.4306903899053838

>  <r_i_glide_gscore_strain>  (1) 
0

>  <r_i_glide_hbond>  (1) 
0

>  <r_i_glide_ligand_efficiency>  (1) 
-0.092301206463704585

>  <r_i_glide_ligand_efficiency_ln>  (1) 
-0.70917571667913448

>  <r_i_glide_ligand_efficiency_sa>  (1) 
-0.30192336685318544

>  <r_i_glide_lipo>  (1) 
-1.0698952984160535

>  <r_i_glide_metal>  (1) 
-0

>  <r_i_glide_rewards>  (1) 
-1.557068994131714

>  <r_lp_Energy>  (1) 
76.336466000000001

>  <r_lp_tautomer_probability>  (1) 
0.99995000000000001

>  <s_epik_Chemistry_Notes>  (1) 
This compound contains an acetal/aminal-like group ( X-CH(R)-Y where X, Y are N, S, or O) that may be acid/base labile, releasing an aldehyde.

>  <s_epik_cmdline>  (1) 
J2VwaWtfcHl0aG9uJywgJy1waHQnLCAnMS4wJywgJy1waCcsICc3LjQnLCAnLXRuJywgJzgnLCAnLW1hJywgJzUwMCcsICctaW1hZScsICc8aW5maWxlLm1hZT4nLCAnLW9tYWUnLCAnPG91dGZpbGUubWFlPic=

>  <s_epik_input>  (1) 
TzFbQ0gyXVtDQF0xMmMzYyhbQ0gyXVtDSF09QzJGKVtjSF1jKFtjSF1bY0hdMylbQ0gyXU4oW0NAQEhdKFtPSF0pW0NIMl00KUMoPU8pW0NIMl1ONFtDQEhdKEM1KFtDSDNdKVtDSDNdKUMoPU8pW0NAQEhdKFtDSDJdW0NIM10pW0NIMl0vW0NIXT1bQ0hdXFtDSDJdNQ==

>  <s_glide_docking_method>  (1) 
confgen

>  <s_i_glide_gridfile>  (1) 
gpcr_drd2_6luq_protein_autoprepared_prepared

>  <s_lp_Force_Field>  (1) 
S-OPLS

>  <s_lp_Variant>  (1) 
DiffSBDD_2-2

>  <s_m_source_file>  (1) 
generated_generic_title2_ligand_DiffSBDD_2026-06-23_prepared.sdf

>  <GenAI_Model>  (1) 
DiffSBDD

>  <Protein>  (1) 
generic_title2

$$$$
DiffSBDD_28
     RDKit          3D

  0  0  0  0  0  0  0  0  0  0999 V3000
M  V30 BEGIN CTAB
M  V30 COUNTS 61 65 0 0 1
M  V30 BEGIN ATOM
M  V30 1 C 10.215664 1.608084 -18.893301 0 CFG=1
M  V30 2 F 13.829250 -0.624748 -19.072210 0
M  V30 3 C 14.053486 1.767355 -19.271785 0
M  V30 4 C 8.334470 -3.163305 -20.784171 0
M  V30 5 C 7.581978 -1.865981 -20.516677 0
M  V30 6 C 16.175056 2.691332 -20.047912 0
M  V30 7 C 6.223851 -4.899005 -17.304681 0 CFG=2
M  V30 8 O 8.028887 -3.410713 -17.584770 0
M  V30 9 C 6.642350 -5.097534 -18.738684 0
M  V30 10 C 16.695250 1.397223 -20.198957 0
M  V30 11 C 6.538372 -1.415112 -19.474580 0
M  V30 12 C 5.696089 -1.685130 -17.136462 0
M  V30 13 C 9.765968 3.069810 -18.862591 0
M  V30 14 C 9.121895 0.643970 -19.298476 0 CFG=1
M  V30 15 Cl 18.304998 1.193708 -20.768742 0
M  V30 16 O 12.751272 0.770572 -21.334382 0
M  V30 17 C 10.397414 0.304326 -21.363521 0 CFG=1
M  V30 18 O 4.838584 -5.122297 -17.185184 0
M  V30 19 C 15.903159 0.272420 -19.870120 0
M  V30 20 C 7.095032 -2.837251 -21.578377 0
M  V30 21 C 11.690638 0.859530 -20.714085 0
M  V30 22 O 8.280000 -0.755759 -21.081179 0
M  V30 23 O 10.714126 -0.666717 -22.344551 0
M  V30 24 N 11.556437 1.451395 -19.457558 0
M  V30 25 C 14.583165 0.453408 -19.403137 0
M  V30 26 C 5.919339 -2.449607 -18.468906 0
M  V30 27 C 4.510251 -2.765271 -19.032734 0
M  V30 28 O 6.167293 -0.241215 -19.439985 0
M  V30 29 C 6.740814 -3.711795 -18.106353 0 CFG=1
M  V30 30 C 9.455124 -0.366400 -20.360198 0 CFG=2
M  V30 31 C 12.644443 1.994094 -18.751509 0
M  V30 32 C 9.696925 0.587018 -17.902643 0
M  V30 33 C 14.865126 2.878754 -19.576910 0
M  V30 34 O 12.491500 2.658492 -17.725253 0
M  V30 35 H 9.266581 -3.100379 -21.337989 0
M  V30 36 H 8.339101 -3.966377 -20.073517 0
M  V30 37 H 16.786491 3.547509 -20.291992 0
M  V30 38 H 6.814439 -5.365622 -16.522264 0
M  V30 39 H 7.925986 -3.183134 -16.661550 0
M  V30 40 H 5.859438 -5.276055 -19.474971 0
M  V30 41 H 7.551438 -5.679984 -18.884280 0
M  V30 42 H 5.257925 -2.320786 -16.365955 0
M  V30 43 H 6.636915 -1.301967 -16.737071 0
M  V30 44 H 5.033143 -0.826265 -17.252663 0
M  V30 45 H 8.713986 3.152429 -18.583434 0
M  V30 46 H 10.322548 3.653502 -18.132052 0
M  V30 47 H 9.888192 3.521152 -19.847821 0
M  V30 48 H 8.163748 1.133149 -19.445498 0
M  V30 49 H 9.888226 1.136524 -21.853004 0
M  V30 50 H 4.575402 -4.812576 -16.302925 0
M  V30 51 H 16.307471 -0.724492 -19.971865 0
M  V30 52 H 6.213206 -3.440718 -21.375484 0
M  V30 53 H 7.234303 -2.577697 -22.625143 0
M  V30 54 H 9.899005 -0.940469 -22.737583 0
M  V30 55 H 3.842444 -3.189559 -18.290111 0
M  V30 56 H 4.005797 -1.858696 -19.366231 0
M  V30 57 H 4.534994 -3.446786 -19.878126 0
M  V30 58 H 9.946899 -1.223465 -19.898623 0
M  V30 59 H 9.054416 0.935765 -17.096457 0
M  V30 60 H 10.322391 -0.269999 -17.662438 0
M  V30 61 H 14.474812 3.879317 -19.460732 0
M  V30 END ATOM
M  V30 BEGIN BOND
M  V30 1 1 5 4
M  V30 2 1 9 7
M  V30 3 1 10 6
M  V30 4 1 11 5
M  V30 5 1 1 13 CFG=1
M  V30 6 1 14 1
M  V30 7 1 15 10
M  V30 8 1 18 7
M  V30 9 2 19 10
M  V30 10 1 20 4
M  V30 11 1 20 5
M  V30 12 2 21 16
M  V30 13 1 21 17
M  V30 14 1 22 5
M  V30 15 1 23 17
M  V30 16 1 24 1
M  V30 17 1 24 21
M  V30 18 1 25 2
M  V30 19 2 25 3
M  V30 20 1 25 19
M  V30 21 1 26 11
M  V30 22 1 26 12
M  V30 23 1 27 26
M  V30 24 2 28 11
M  V30 25 1 29 7
M  V30 26 1 29 8 CFG=1
M  V30 27 1 29 9
M  V30 28 1 29 26
M  V30 29 1 30 14
M  V30 30 1 30 17
M  V30 31 1 30 22
M  V30 32 1 31 3
M  V30 33 1 31 24
M  V30 34 1 32 1
M  V30 35 1 32 14
M  V30 36 1 33 3
M  V30 37 2 33 6
M  V30 38 2 34 31
M  V30 39 1 35 4
M  V30 40 1 36 4
M  V30 41 1 37 6
M  V30 42 1 7 38 CFG=1
M  V30 43 1 39 8
M  V30 44 1 40 9
M  V30 45 1 41 9
M  V30 46 1 42 12
M  V30 47 1 43 12
M  V30 48 1 44 12
M  V30 49 1 45 13
M  V30 50 1 46 13
M  V30 51 1 47 13
M  V30 52 1 14 48 CFG=1
M  V30 53 1 17 49 CFG=3
M  V30 54 1 50 18
M  V30 55 1 51 19
M  V30 56 1 52 20
M  V30 57 1 53 20
M  V30 58 1 54 23
M  V30 59 1 55 27
M  V30 60 1 56 27
M  V30 61 1 57 27
M  V30 62 1 30 58 CFG=1
M  V30 63 1 59 32
M  V30 64 1 60 32
M  V30 65 1 61 33
M  V30 END BOND
M  V30 END CTAB
M  END
>  <i_epik_Tot_Q>  (1) 
0

>  <i_epik_Tot_abs_Q>  (1) 
0

>  <i_i_glide_confnum>  (1) 
167

>  <i_i_glide_lignum>  (1) 
49

>  <i_i_glide_posenum>  (1) 
223

>  <i_i_glide_rotatable_bonds>  (1) 
10

>  <i_lp_mmshare_version>  (1) 
72125

>  <i_m_source_file_index>  (1) 
29

>  <i_f3d_flags>  (1) 
0

>  <num_sample>  (1) 
100

>  <b_lp_Chiralities_Consistent>  (1) 
1

>  <r_epik_Charging_Adjusted_Penalty>  (1) 
0

>  <r_epik_Ionization_Penalty>  (1) 
0.00021297919892765405

>  <r_epik_Ionization_Penalty_Charging>  (1) 
0

>  <r_epik_Ionization_Penalty_Neutral>  (1) 
0.00021297919892765405

>  <r_epik_State_Penalty>  (1) 
-0

>  <r_glide_ring_energy>  (1) 
0

>  <r_i_docking_score>  (1) 
-3.2296677732457471

>  <r_i_glide_ecoul>  (1) 
-10.481830437381291

>  <r_i_glide_eff_state_penalty>  (1) 
-0

>  <r_i_glide_einternal>  (1) 
22.414697582528134

>  <r_i_glide_emodel>  (1) 
-21.897905037329558

>  <r_i_glide_emodel_strain>  (1) 
4.9594377697608536

>  <r_i_glide_energy>  (1) 
-32.531167911060422

>  <r_i_glide_erotb>  (1) 
0.58028021172077726

>  <r_i_glide_esite>  (1) 
0

>  <r_i_glide_evdw>  (1) 
-22.049337473679127

>  <r_i_glide_gscore>  (1) 
-3.2296677732457471

>  <r_i_glide_gscore_strain>  (1) 
0.2398594424402134

>  <r_i_glide_hbond>  (1) 
-0.45599999999999996

>  <r_i_glide_ligand_efficiency>  (1) 
-0.094990228624874912

>  <r_i_glide_ligand_efficiency_ln>  (1) 
-0.71352420022256735

>  <r_i_glide_ligand_efficiency_sa>  (1) 
-0.30773146565919102

>  <r_i_glide_lipo>  (1) 
-0.66132062412584747

>  <r_i_glide_metal>  (1) 
-0

>  <r_i_glide_rewards>  (1) 
-0.25774536398974024

>  <r_lp_Energy>  (1) 
67.434545999999997

>  <r_lp_tautomer_probability>  (1) 
1

>  <s_epik_cmdline>  (1) 
J2VwaWtfcHl0aG9uJywgJy1waHQnLCAnMS4wJywgJy1waCcsICc3LjQnLCAnLXRuJywgJzgnLCAnLW1hJywgJzUwMCcsICctaW1hZScsICc8aW5maWxlLm1hZT4nLCAnLW9tYWUnLCAnPG91dGZpbGUubWFlPic=

>  <s_epik_input>  (1) 
W0NIMl0xW0NASF0oW09IXSlbQ0BdMShbT0hdKUMoW0NIM10pKFtDSDNdKUMoPU8pQzIoW0NIMl1bQ0gyXTIpT1tDQEhdKFtDQEBIXShbQ0gyXTMpW0NAQF0zNFtDSDNdKVtDQEhdKFtPSF0pQyg9TylONEMoPU8pYzVjKEYpW2NIXWMoQ2wpW2NIXVtjSF01

>  <s_glide_docking_method>  (1) 
confgen

>  <s_i_glide_gridfile>  (1) 
gpcr_drd2_6luq_protein_autoprepared_prepared

>  <s_lp_Force_Field>  (1) 
S-OPLS

>  <s_lp_Variant>  (1) 
DiffSBDD_28-1

>  <s_m_source_file>  (1) 
generated_generic_title2_ligand_DiffSBDD_2026-06-23_prepared.sdf

>  <GenAI_Model>  (1) 
DiffSBDD

>  <Protein>  (1) 
generic_title2

$$$$
DiffSBDD_88
     RDKit          3D

  0  0  0  0  0  0  0  0  0  0999 V3000
M  V30 BEGIN CTAB
M  V30 COUNTS 36 37 0 0 1
M  V30 BEGIN ATOM
M  V30 1 C 6.121307 1.057081 -18.820410 0 CFG=1
M  V30 2 F 7.246379 -0.807396 -19.799069 0
M  V30 3 C 7.942920 2.241525 -13.185025 0
M  V30 4 C 7.677339 3.695594 -12.785028 0
M  V30 5 O 7.775585 -0.009773 -14.800053 0
M  V30 6 O 7.157506 5.692831 -14.076952 0
M  V30 7 O 7.030528 1.834528 -19.363398 0 CHG=-1
M  V30 8 C 7.936290 4.513681 -14.057342 0 CFG=2
M  V30 9 C 5.510268 -0.413880 -16.742736 0
M  V30 10 N 7.711343 2.243172 -14.619583 0
M  V30 11 C 6.037537 -0.248159 -19.667499 0 CFG=1
M  V30 12 F 6.561878 -2.350796 -17.585025 0
M  V30 13 C 5.409878 -1.679530 -17.627261 0 CFG=2
M  V30 14 C 7.628539 1.090100 -15.331889 0
M  V30 15 C 4.975410 -2.559697 -19.985033 0
M  V30 16 N 7.359679 1.305298 -16.677797 0
M  V30 17 C 6.427969 0.702303 -17.341039 0
M  V30 18 C 7.591967 3.572165 -15.219622 0
M  V30 19 C 5.060002 -1.312420 -19.089581 0 CFG=2
M  V30 20 H 5.092253 1.417077 -18.785024 0
M  V30 21 H 7.280215 1.551319 -12.660590 0
M  V30 22 H 8.975407 1.958280 -12.975327 0
M  V30 23 H 8.289355 4.017840 -11.941869 0
M  V30 24 H 6.631469 3.791141 -12.488271 0
M  V30 25 H 7.375425 6.209660 -13.315681 0
M  V30 26 H 8.994918 4.774639 -14.106825 0
M  V30 27 H 5.771547 -0.734838 -15.740758 0
M  V30 28 H 4.505475 -0.009771 -16.628321 0
M  V30 29 H 5.725665 0.008298 -20.681286 0
M  V30 30 H 4.660333 -2.356674 -17.214958 0
M  V30 31 H 5.936423 -3.070307 -20.051976 0
M  V30 32 H 4.246723 -3.271609 -19.596602 0
M  V30 33 H 4.669333 -2.292760 -20.997027 0
M  V30 34 H 6.575410 3.728563 -15.571892 0
M  V30 35 H 8.273712 3.720254 -16.059128 0
M  V30 36 H 4.056100 -0.880556 -19.081367 0
M  V30 END ATOM
M  V30 BEGIN BOND
M  V30 1 1 4 3
M  V30 2 1 7 1
M  V30 3 1 8 4
M  V30 4 1 8 6
M  V30 5 1 10 3
M  V30 6 1 11 1
M  V30 7 1 11 2
M  V30 8 1 13 9
M  V30 9 1 13 12
M  V30 10 2 14 5
M  V30 11 1 14 10
M  V30 12 1 16 14
M  V30 13 1 17 1
M  V30 14 1 17 9
M  V30 15 2 17 16
M  V30 16 1 18 8
M  V30 17 1 18 10
M  V30 18 1 19 11
M  V30 19 1 19 13
M  V30 20 1 19 15
M  V30 21 1 1 20 CFG=1
M  V30 22 1 21 3
M  V30 23 1 22 3
M  V30 24 1 23 4
M  V30 25 1 24 4
M  V30 26 1 25 6
M  V30 27 1 8 26 CFG=3
M  V30 28 1 27 9
M  V30 29 1 28 9
M  V30 30 1 11 29 CFG=3
M  V30 31 1 13 30 CFG=1
M  V30 32 1 31 15
M  V30 33 1 32 15
M  V30 34 1 33 15
M  V30 35 1 34 18
M  V30 36 1 35 18
M  V30 37 1 19 36 CFG=1
M  V30 END BOND
M  V30 END CTAB
M  END
>  <i_epik_Tot_Q>  (1) 
-1

>  <i_epik_Tot_abs_Q>  (1) 
1

>  <i_i_glide_confnum>  (1) 
4

>  <i_i_glide_lignum>  (1) 
163

>  <i_i_glide_posenum>  (1) 
165

>  <i_i_glide_rotatable_bonds>  (1) 
3

>  <i_lp_mmshare_version>  (1) 
72125

>  <i_m_source_file_index>  (1) 
89

>  <i_f3d_flags>  (1) 
0

>  <num_sample>  (1) 
100

>  <b_lp_Chiralities_Consistent>  (1) 
1

>  <r_epik_Charging_Adjusted_Penalty>  (1) 
1.6999520965461032

>  <r_epik_Ionization_Penalty>  (1) 
0.8499760961676609

>  <r_epik_Ionization_Penalty_Charging>  (1) 
0.84997604827305151

>  <r_epik_Ionization_Penalty_Neutral>  (1) 
4.7894609424591191e-08

>  <r_epik_State_Penalty>  (1) 
0.84997604827305173

>  <r_glide_ring_energy>  (1) 
0

>  <r_i_docking_score>  (1) 
-3.2271976807617775

>  <r_i_glide_ecoul>  (1) 
0.13739517984339095

>  <r_i_glide_eff_state_penalty>  (1) 
0.84997604827305173

>  <r_i_glide_einternal>  (1) 
0.57178020689879405

>  <r_i_glide_emodel>  (1) 
-30.60598015112895

>  <r_i_glide_emodel_strain>  (1) 
0.64638662808366831

>  <r_i_glide_energy>  (1) 
-25.7896668320633

>  <r_i_glide_erotb>  (1) 
0.4743209619600951

>  <r_i_glide_esite>  (1) 
-0.029116330749651833

>  <r_i_glide_evdw>  (1) 
-25.927062011906692

>  <r_i_glide_gscore>  (1) 
-4.0771737290348291

>  <r_i_glide_gscore_strain>  (1) 
0

>  <r_i_glide_hbond>  (1) 
0

>  <r_i_glide_ligand_efficiency>  (1) 
-0.16985250951377776

>  <r_i_glide_ligand_efficiency_ln>  (1) 
-0.81816392592382459

>  <r_i_glide_ligand_efficiency_sa>  (1) 
-0.45323471642612451

>  <r_i_glide_lipo>  (1) 
-1.1351647595757017

>  <r_i_glide_metal>  (1) 
-0

>  <r_i_glide_rewards>  (1) 
-2.1114697770507447

>  <r_lp_Energy>  (1) 
28.916074999999999

>  <s_epik_Chemistry_Notes>  (1) 
This compound has an imine and may undergo hydrolysis.

>  <s_epik_cmdline>  (1) 
J2VwaWtfcHl0aG9uJywgJy1waHQnLCAnMS4wJywgJy1waCcsICc3LjQnLCAnLXRuJywgJzgnLCAnLW1hJywgJzUwMCcsICctaW1hZScsICc8aW5maWxlLm1hZT4nLCAnLW9tYWUnLCAnPG91dGZpbGUubWFlPic=

>  <s_epik_input>  (1) 
W09IXVtDQEhdMVtDQEBIXShGKVtDQEBIXShbQ0gzXSlbQ0BASF0oRilbQ0gyXUMvMT1OXEMoPU8pTihbQ0gyXTIpW0NIMl1bQ0gyXVtDQEBIXTJbT0hd

>  <s_glide_docking_method>  (1) 
confgen

>  <s_i_glide_gridfile>  (1) 
gpcr_drd2_6luq_protein_autoprepared_prepared

>  <s_lp_Force_Field>  (1) 
S-OPLS

>  <s_lp_Variant>  (1) 
DiffSBDD_88-4

>  <s_m_source_file>  (1) 
generated_generic_title2_ligand_DiffSBDD_2026-06-23_prepared.sdf

>  <GenAI_Model>  (1) 
DiffSBDD

>  <Protein>  (1) 
generic_title2

$$$$
DiffSBDD_21
     RDKit          3D

  0  0  0  0  0  0  0  0  0  0999 V3000
M  V30 BEGIN CTAB
M  V30 COUNTS 75 79 0 0 1
M  V30 BEGIN ATOM
M  V30 1 F 7.771805 2.797228 -18.128690 0
M  V30 2 O 6.174903 -0.586432 -15.877532 0
M  V30 3 O 9.128352 4.699984 -10.968788 0
M  V30 4 C 7.915917 7.431646 -12.740140 0 CFG=1
M  V30 5 C 7.595495 6.104529 -12.086140 0 CFG=2
M  V30 6 C 7.350563 1.140693 -14.829592 0 CFG=2
M  V30 7 C 4.803216 -3.592372 -21.317982 0
M  V30 8 N 5.292015 -1.192065 -19.794360 0
M  V30 9 C 6.497910 7.114353 -12.358691 0
M  V30 10 C 5.537232 -3.724141 -19.987807 0 CFG=1
M  V30 11 C 6.954298 1.639084 -16.220430 0 CFG=1
M  V30 12 C 6.787649 -4.627643 -20.062956 0 CFG=2
M  V30 13 C 7.936398 -3.782824 -20.642641 0 CFG=1
M  V30 14 C 8.159555 2.198551 -17.001729 0
M  V30 15 C 6.030696 -2.387466 -19.388241 0 CFG=1
M  V30 16 O 7.803596 -3.719750 -22.058944 0
M  V30 17 C 6.467738 3.910553 -12.452676 0
M  V30 18 C 9.541819 7.102673 -10.988981 0 CFG=1
M  V30 19 C 5.679353 1.159850 -20.371343 0
M  V30 20 O 7.181928 -7.922705 -21.421408 0 CHG=-1
M  V30 21 C 6.190533 2.856867 -13.519627 0
M  V30 22 C 8.967372 -3.245261 -22.714572 0
M  V30 23 S 7.783736 -2.177161 -19.835772 0
M  V30 24 C 6.324845 0.396823 -16.812003 0
M  V30 25 C 10.117087 7.593508 -9.652890 0
M  V30 26 C 6.451619 -0.072599 -14.581750 0
M  V30 27 C 7.430707 -6.899504 -20.751556 0
M  V30 28 N 6.578062 -5.868855 -20.809735 0
M  V30 29 C 8.498752 5.971681 -10.875817 0 CFG=2
M  V30 30 O 7.373436 2.114568 -13.788341 0
M  V30 31 O 8.450198 -6.810331 -20.030911 0
M  V30 32 C 5.657872 0.062532 -19.327196 0
M  V30 33 C 8.850315 8.185988 -11.823956 0
M  V30 34 C 5.976774 0.303186 -18.074606 0
M  V30 35 C 9.004902 4.208413 -12.294027 0
M  V30 36 C 3.564914 -4.059755 -21.540346 0
M  V30 37 C 7.683258 4.794661 -12.802477 0 CFG=2
M  V30 38 H 8.175035 7.407129 -13.794085 0
M  V30 39 H 8.368824 0.752790 -14.892654 0
M  V30 40 H 5.332657 -3.089785 -22.114498 0
M  V30 41 H 5.057019 -1.209677 -20.777370 0
M  V30 42 H 6.062914 7.678317 -11.543061 0
M  V30 43 H 5.809839 6.901651 -13.174372 0
M  V30 44 H 4.830624 -4.168744 -19.285360 0
M  V30 45 H 6.175523 2.387294 -16.177426 0
M  V30 46 H 7.048988 -4.887859 -19.034619 0
M  V30 47 H 8.898241 -4.228406 -20.383423 0
M  V30 48 H 8.686778 2.952072 -16.415839 0
M  V30 49 H 8.872049 1.416076 -17.265060 0
M  V30 50 H 5.992387 -2.475349 -18.301372 0
M  V30 51 H 5.571709 4.526408 -12.371446 0
M  V30 52 H 6.583075 3.458629 -11.471568 0
M  V30 53 H 10.370463 6.728645 -11.591972 0
M  V30 54 H 4.999819 1.965824 -20.091189 0
M  V30 55 H 6.684126 1.574161 -20.462010 0
M  V30 56 H 5.376045 0.791492 -21.351713 0
M  V30 57 H 5.862487 3.417861 -14.386303 0
M  V30 58 H 5.375534 2.208759 -13.202818 0
M  V30 59 H 8.793111 -3.211573 -23.789594 0
M  V30 60 H 9.231900 -2.238266 -22.389281 0
M  V30 61 H 9.813946 -3.907711 -22.534275 0
M  V30 62 H 9.340403 8.004257 -9.008670 0
M  V30 63 H 10.594996 6.775687 -9.113554 0
M  V30 64 H 10.863017 8.372705 -9.809817 0
M  V30 65 H 5.501263 0.194007 -14.121612 0
M  V30 66 H 6.938213 -0.809805 -13.946037 0
M  V30 67 H 5.759201 -5.940638 -21.392774 0
M  V30 68 H 7.913427 5.990216 -9.957583 0
M  V30 69 H 8.263086 8.852609 -11.190662 0
M  V30 70 H 9.558649 8.789767 -12.384986 0
M  V30 71 H 9.060307 3.120539 -12.312664 0
M  V30 72 H 9.834332 4.593995 -12.886975 0
M  V30 73 H 3.011434 -4.566283 -20.762345 0
M  V30 74 H 3.090633 -3.941545 -22.503282 0
M  V30 75 H 7.722283 4.968011 -13.878762 0
M  V30 END ATOM
M  V30 BEGIN BOND
M  V30 1 1 5 4
M  V30 2 1 9 4
M  V30 3 1 5 9 CFG=1
M  V30 4 1 10 7
M  V30 5 1 11 6
M  V30 6 1 12 10
M  V30 7 1 13 12
M  V30 8 1 14 1
M  V30 9 1 14 11
M  V30 10 1 15 8
M  V30 11 1 15 10
M  V30 12 1 16 13
M  V30 13 1 21 17
M  V30 14 1 22 16
M  V30 15 1 23 13
M  V30 16 1 23 15
M  V30 17 1 24 2
M  V30 18 1 24 11
M  V30 19 1 25 18
M  V30 20 1 26 2
M  V30 21 1 26 6
M  V30 22 1 27 20
M  V30 23 1 28 12
M  V30 24 1 28 27
M  V30 25 1 29 3
M  V30 26 1 29 5
M  V30 27 1 29 18
M  V30 28 1 30 6
M  V30 29 1 30 21
M  V30 30 2 31 27
M  V30 31 1 32 8
M  V30 32 1 32 19
M  V30 33 1 33 4
M  V30 34 1 33 18
M  V30 35 2 34 24
M  V30 36 2 34 32
M  V30 37 1 35 3
M  V30 38 2 36 7
M  V30 39 1 37 5
M  V30 40 1 37 17
M  V30 41 1 37 35
M  V30 42 1 4 38 CFG=3
M  V30 43 1 6 39 CFG=3
M  V30 44 1 40 7
M  V30 45 1 41 8
M  V30 46 1 42 9
M  V30 47 1 43 9
M  V30 48 1 10 44 CFG=1
M  V30 49 1 11 45 CFG=1
M  V30 50 1 12 46 CFG=1
M  V30 51 1 13 47 CFG=3
M  V30 52 1 48 14
M  V30 53 1 49 14
M  V30 54 1 15 50 CFG=1
M  V30 55 1 51 17
M  V30 56 1 52 17
M  V30 57 1 18 53 CFG=3
M  V30 58 1 54 19
M  V30 59 1 55 19
M  V30 60 1 56 19
M  V30 61 1 57 21
M  V30 62 1 58 21
M  V30 63 1 59 22
M  V30 64 1 60 22
M  V30 65 1 61 22
M  V30 66 1 62 25
M  V30 67 1 63 25
M  V30 68 1 64 25
M  V30 69 1 65 26
M  V30 70 1 66 26
M  V30 71 1 67 28
M  V30 72 1 29 68 CFG=1
M  V30 73 1 69 33
M  V30 74 1 70 33
M  V30 75 1 71 35
M  V30 76 1 72 35
M  V30 77 1 73 36
M  V30 78 1 74 36
M  V30 79 1 37 75 CFG=3
M  V30 END BOND
M  V30 END CTAB
M  END
>  <i_epik_Tot_Q>  (1) 
-1

>  <i_epik_Tot_abs_Q>  (1) 
1

>  <i_i_glide_confnum>  (1) 
721

>  <i_i_glide_lignum>  (1) 
38

>  <i_i_glide_posenum>  (1) 
235

>  <i_i_glide_rotatable_bonds>  (1) 
11

>  <i_lp_mmshare_version>  (1) 
72125

>  <i_m_source_file_index>  (1) 
22

>  <i_f3d_flags>  (1) 
0

>  <num_sample>  (1) 
100

>  <b_lp_Chiralities_Consistent>  (1) 
1

>  <r_epik_Charging_Adjusted_Penalty>  (1) 
0.00061310518503501809

>  <r_epik_Ionization_Penalty>  (1) 
0.00061311684036178345

>  <r_epik_Ionization_Penalty_Charging>  (1) 
0.00061310518503501809

>  <r_epik_Ionization_Penalty_Neutral>  (1) 
1.1655326765339942e-08

>  <r_epik_State_Penalty>  (1) 
-0

>  <r_glide_ring_energy>  (1) 
0.25431791977597118

>  <r_i_docking_score>  (1) 
-3.2119023056181311

>  <r_i_glide_ecoul>  (1) 
-1.0948215861334307

>  <r_i_glide_eff_state_penalty>  (1) 
-0

>  <r_i_glide_einternal>  (1) 
13.690370710297499

>  <r_i_glide_emodel>  (1) 
-30.114622399148494

>  <r_i_glide_emodel_strain>  (1) 
0.016476382678618506

>  <r_i_glide_energy>  (1) 
-31.552996806763801

>  <r_i_glide_erotb>  (1) 
0.57165655028623308

>  <r_i_glide_esite>  (1) 
0

>  <r_i_glide_evdw>  (1) 
-30.45817522063037

>  <r_i_glide_gscore>  (1) 
-3.2119023056181311

>  <r_i_glide_gscore_strain>  (1) 
0

>  <r_i_glide_hbond>  (1) 
0

>  <r_i_glide_ligand_efficiency>  (1) 
-0.086808170422111655

>  <r_i_glide_ligand_efficiency_ln>  (1) 
-0.69658631241522162

>  <r_i_glide_ligand_efficiency_sa>  (1) 
-0.28926408238196638

>  <r_i_glide_lipo>  (1) 
-1.4358552694852562

>  <r_i_glide_metal>  (1) 
-0

>  <r_i_glide_rewards>  (1) 
-0.66057158746757427

>  <r_lp_Energy>  (1) 
-4.7551119999999996

>  <r_lp_tautomer_probability>  (1) 
1

>  <s_epik_Chemistry_Notes>  (1) 
This compound contains an acetal/aminal-like group ( X-CH(R)-Y where X, Y are N, S, or O) that may be acid/base labile, releasing an aldehyde.

>  <s_epik_cmdline>  (1) 
J2VwaWtfcHl0aG9uJywgJy1waHQnLCAnMS4wJywgJy1waCcsICc3LjQnLCAnLXRuJywgJzgnLCAnLW1hJywgJzUwMCcsICctaW1hZScsICc8aW5maWxlLm1hZT4nLCAnLW9tYWUnLCAnPG91dGZpbGUubWFlPic=

>  <s_epik_input>  (1) 
W09IXUMoPU8pW05IXVtDQEhdKFtDQEBIXTFbQ0hdPVtDSDJdKVtDQEBIXShPW0NIM10pU1tDQEhdMVtOSF1DKFtDSDNdKT1DPUMoT1tDSDJdMilbQ0BIXShbQ0gyXUYpW0NASF0yT1tDSDJdW0NIMl1bQ0BASF0zW0NIMl1PW0NASF00W0NASF0oW0NIM10pW0NIMl1bQ0BASF0oW0NAQF0zNDUpW0NIMl01

>  <s_glide_docking_method>  (1) 
confgen

>  <s_i_glide_gridfile>  (1) 
gpcr_drd2_6luq_protein_autoprepared_prepared

>  <s_lp_Force_Field>  (1) 
S-OPLS

>  <s_lp_Variant>  (1) 
DiffSBDD_21-1

>  <s_m_source_file>  (1) 
generated_generic_title2_ligand_DiffSBDD_2026-06-23_prepared.sdf

>  <GenAI_Model>  (1) 
DiffSBDD

>  <Protein>  (1) 
generic_title2

$$$$
DiffSBDD_17
     RDKit          3D

  0  0  0  0  0  0  0  0  0  0999 V3000
M  V30 BEGIN CTAB
M  V30 COUNTS 42 43 0 0 1
M  V30 BEGIN ATOM
M  V30 1 Cl 12.062841 7.742825 -8.941042 0
M  V30 2 C 9.466000 7.074287 -9.187113 0
M  V30 3 C 10.540141 7.298412 -8.118420 0 CFG=2
M  V30 4 C 5.000644 7.826048 -16.346010 0
M  V30 5 C 11.098315 6.592711 -5.825848 0
M  V30 6 O 9.775397 5.964519 -10.020879 0
M  V30 7 C 7.938230 6.584916 -13.185694 0
M  V30 8 Cl 7.775545 2.549635 -13.276668 0
M  V30 9 C 11.444956 9.003692 -4.962167 0
M  V30 10 O 6.613206 6.140065 -15.678980 0
M  V30 11 O 5.146377 7.541074 -18.598414 0
M  V30 12 C 9.071277 5.747174 -11.186310 0
M  V30 13 O 12.175406 8.527233 -4.064979 0
M  V30 14 C 6.932309 4.988963 -14.903458 0
M  V30 15 C 8.802785 4.424818 -11.594126 0
M  V30 16 C 8.102269 4.178442 -12.791455 0
M  V30 17 C 10.535230 8.017474 -5.728082 0 CFG=1
M  V30 18 C 8.633818 6.829750 -11.986559 0
M  V30 19 C 10.204844 8.456516 -7.168801 0
M  V30 20 O 11.375590 10.210906 -5.281118 0 CHG=-1
M  V30 21 C 5.375567 6.740402 -15.330915 0
M  V30 22 C 10.688707 6.074842 -7.199653 0
M  V30 23 C 7.672031 5.259377 -13.594899 0
M  V30 24 N 4.579038 7.119385 -17.613032 0
M  V30 25 H 9.303451 8.011656 -9.713438 0
M  V30 26 H 8.575399 6.790228 -8.649506 0
M  V30 27 H 4.142110 8.400617 -15.998799 0
M  V30 28 H 5.822921 8.512924 -16.550457 0
M  V30 29 H 10.708270 5.973010 -5.020199 0
M  V30 30 H 12.175411 6.552816 -5.748186 0
M  V30 31 H 7.618205 7.415415 -13.796214 0
M  V30 32 H 7.586253 4.372471 -15.521248 0
M  V30 33 H 6.044221 4.386072 -14.710656 0
M  V30 34 H 9.137226 3.596508 -10.986934 0
M  V30 35 H 9.600991 7.951563 -5.185025 0
M  V30 36 H 8.838487 7.845278 -11.691675 0
M  V30 37 H 10.786133 9.323820 -7.464919 0
M  V30 38 H 9.151969 8.733708 -7.236028 0
M  V30 39 H 4.586334 5.990187 -15.315141 0
M  V30 40 H 5.428912 7.168199 -14.329967 0
M  V30 41 H 9.718435 5.590574 -7.090402 0
M  V30 42 H 11.375105 5.324861 -7.585071 0
M  V30 END ATOM
M  V30 BEGIN BOND
M  V30 1 1 3 1 CFG=3
M  V30 2 1 3 2
M  V30 3 1 6 2
M  V30 4 1 12 6
M  V30 5 2 13 9
M  V30 6 1 14 10
M  V30 7 2 15 12
M  V30 8 1 16 8
M  V30 9 1 16 15
M  V30 10 1 17 5
M  V30 11 1 17 9
M  V30 12 2 18 7
M  V30 13 1 18 12
M  V30 14 1 19 3
M  V30 15 1 19 17
M  V30 16 1 20 9
M  V30 17 1 21 4
M  V30 18 1 21 10
M  V30 19 1 22 3
M  V30 20 1 22 5
M  V30 21 1 23 7
M  V30 22 1 23 14
M  V30 23 2 23 16
M  V30 24 1 24 4
M  V30 25 2 24 11
M  V30 26 1 25 2
M  V30 27 1 26 2
M  V30 28 1 27 4
M  V30 29 1 28 4
M  V30 30 1 29 5
M  V30 31 1 30 5
M  V30 32 1 31 7
M  V30 33 1 32 14
M  V30 34 1 33 14
M  V30 35 1 34 15
M  V30 36 1 17 35 CFG=1
M  V30 37 1 36 18
M  V30 38 1 37 19
M  V30 39 1 38 19
M  V30 40 1 39 21
M  V30 41 1 40 21
M  V30 42 1 41 22
M  V30 43 1 42 22
M  V30 END BOND
M  V30 END CTAB
M  END
>  <i_epik_Tot_Q>  (1) 
-1

>  <i_epik_Tot_abs_Q>  (1) 
1

>  <i_i_glide_confnum>  (1) 
54

>  <i_i_glide_lignum>  (1) 
33

>  <i_i_glide_posenum>  (1) 
275

>  <i_i_glide_rotatable_bonds>  (1) 
9

>  <i_lp_mmshare_version>  (1) 
72125

>  <i_m_source_file_index>  (1) 
18

>  <i_f3d_flags>  (1) 
0

>  <num_sample>  (1) 
100

>  <b_lp_Chiralities_Consistent>  (1) 
1

>  <r_epik_Charging_Adjusted_Penalty>  (1) 
0.00012381605781317179

>  <r_epik_Ionization_Penalty>  (1) 
0.00012381605830283167

>  <r_epik_Ionization_Penalty_Charging>  (1) 
0.00012381605781317179

>  <r_epik_Ionization_Penalty_Neutral>  (1) 
4.8965987375008979e-13

>  <r_epik_State_Penalty>  (1) 
-0

>  <r_glide_ring_energy>  (1) 
0

>  <r_i_docking_score>  (1) 
-3.2005991991264553

>  <r_i_glide_ecoul>  (1) 
-2.3749903963751215

>  <r_i_glide_eff_state_penalty>  (1) 
-0

>  <r_i_glide_einternal>  (1) 
7.1378517829072869

>  <r_i_glide_emodel>  (1) 
-32.990880941588657

>  <r_i_glide_emodel_strain>  (1) 
1.3731746842957477

>  <r_i_glide_energy>  (1) 
-32.032595583492629

>  <r_i_glide_erotb>  (1) 
0.96174401237487195

>  <r_i_glide_esite>  (1) 
0

>  <r_i_glide_evdw>  (1) 
-29.657605187117507

>  <r_i_glide_gscore>  (1) 
-3.2005991991264553

>  <r_i_glide_gscore_strain>  (1) 
0

>  <r_i_glide_hbond>  (1) 
0

>  <r_i_glide_ligand_efficiency>  (1) 
-0.13335829996360229

>  <r_i_glide_ligand_efficiency_ln>  (1) 
-0.76605025427829676

>  <r_i_glide_ligand_efficiency_sa>  (1) 
-0.38467190163886378

>  <r_i_glide_lipo>  (1) 
-2.0929280119778553

>  <r_i_glide_metal>  (1) 
-0

>  <r_i_glide_rewards>  (1) 
-0.23028638071132773

>  <r_lp_Energy>  (1) 
30.153981999999999

>  <r_lp_tautomer_probability>  (1) 
1

>  <s_epik_cmdline>  (1) 
J2VwaWtfcHl0aG9uJywgJy1waHQnLCAnMS4wJywgJy1waCcsICc3LjQnLCAnLXRuJywgJzgnLCAnLW1hJywgJzUwMCcsICctaW1hZScsICc8aW5maWxlLm1hZT4nLCAnLW9tYWUnLCAnPG91dGZpbGUubWFlPic=

>  <s_epik_input>  (1) 
Tz1DKFtPSF0pW0NAQEhdKFtDSDJdW0NIMl0xKVtDSDJdW0NAXTEoQ2wpW0NIMl1PYzJbY0hdYyhDbCljKFtjSF1bY0hdMilbQ0gyXU9bQ0gyXVtDSDJdTj1P

>  <s_glide_docking_method>  (1) 
confgen

>  <s_i_glide_gridfile>  (1) 
gpcr_drd2_6luq_protein_autoprepared_prepared

>  <s_lp_Force_Field>  (1) 
S-OPLS

>  <s_lp_Variant>  (1) 
DiffSBDD_17-2

>  <s_m_source_file>  (1) 
generated_generic_title2_ligand_DiffSBDD_2026-06-23_prepared.sdf

>  <GenAI_Model>  (1) 
DiffSBDD

>  <Protein>  (1) 
generic_title2

$$$$
DiffSBDD_27
     RDKit          3D

  0  0  0  0  0  0  0  0  0  0999 V3000
M  V30 BEGIN CTAB
M  V30 COUNTS 81 86 0 0 1
M  V30 BEGIN ATOM
M  V30 1 O 11.480718 7.982913 -10.235726 0
M  V30 2 C 7.176018 2.654158 -13.237224 0
M  V30 3 C 14.244105 -0.376525 -19.263232 0
M  V30 4 C 11.651341 4.708577 -19.244997 0
M  V30 5 C 8.833734 6.607460 -11.138236 0
M  V30 6 C 10.119841 2.524989 -20.347165 0 CFG=1
M  V30 7 O 9.534601 3.657221 -19.694695 0
M  V30 8 C 10.804698 1.517591 -19.352587 0 CFG=1
M  V30 9 C 7.269156 3.284639 -16.359166 0
M  V30 10 O 8.174715 -0.290779 -15.367083 0
M  V30 11 C 8.458197 2.881795 -22.362407 0
M  V30 12 N 8.057971 1.068625 -20.645756 0
M  V30 13 C 5.853227 0.537038 -13.796769 0
M  V30 14 O 6.105105 0.415856 -19.113621 0
M  V30 15 C 7.978569 1.096753 -15.207196 0 CFG=2
M  V30 16 C 8.211621 1.538609 -17.840365 0 CFG=2
M  V30 17 O 6.114927 3.154136 -12.864833 0
M  V30 18 O 6.555973 2.876397 -19.562743 0
M  V30 19 C 9.354359 6.855342 -9.818957 0 CFG=1
M  V30 20 C 10.237337 8.065354 -9.561511 0
M  V30 21 O 10.036213 0.342277 -19.094991 0
M  V30 22 C 9.019667 1.984930 -21.280648 0
M  V30 23 C 12.159219 0.991304 -19.867108 0
M  V30 24 C 8.494721 3.415872 -13.128603 0
M  V30 25 C 7.836212 5.824919 -13.628398 0
M  V30 26 O 9.375238 4.461905 -10.561694 0
M  V30 27 C 7.231863 1.231576 -13.834200 0 CFG=1
M  V30 28 C 8.392497 4.875635 -12.738438 0
M  V30 29 C 9.216027 0.360265 -17.928733 0
M  V30 30 C 10.304700 4.695294 -19.209083 0
M  V30 31 C 8.717891 6.040949 -8.691609 0 CFG=1
M  V30 32 C 8.866933 5.306782 -11.494019 0
M  V30 33 C 9.524653 4.921805 -8.093046 0
M  V30 34 C 8.291907 7.583159 -11.994033 0
M  V30 35 C 7.396357 1.751037 -16.509534 0 CFG=2
M  V30 36 C 9.793511 5.402505 -9.490366 0 CFG=1
M  V30 37 S 7.058519 1.518066 -19.308112 0
M  V30 38 C 12.973111 0.310191 -18.751832 0
M  V30 39 C 9.330888 1.708320 -22.734956 0
M  V30 40 C 7.777042 7.187185 -13.247438 0
M  V30 41 H 12.003297 8.736790 -10.003224 0
M  V30 42 H 14.775346 -0.864086 -18.445302 0
M  V30 43 H 14.010881 -1.139791 -20.006366 0
M  V30 44 H 14.926442 0.341579 -19.718542 0
M  V30 45 H 12.203549 5.548673 -18.849867 0
M  V30 46 H 12.215326 3.893513 -19.662432 0
M  V30 47 H 10.882696 2.916129 -21.020134 0
M  V30 48 H 11.019844 2.036004 -18.416462 0
M  V30 49 H 8.231870 3.741067 -16.130202 0
M  V30 50 H 6.918903 3.760149 -17.272591 0
M  V30 51 H 6.575026 3.579114 -15.584298 0
M  V30 52 H 7.340779 -0.738187 -15.356001 0
M  V30 53 H 7.394385 2.808225 -22.580380 0
M  V30 54 H 8.882916 3.878613 -22.461464 0
M  V30 55 H 8.445340 0.134180 -20.513439 0
M  V30 56 H 5.476922 0.473903 -12.774993 0
M  V30 57 H 5.111590 1.066863 -14.383587 0
M  V30 58 H 5.895342 -0.481860 -14.174764 0
M  V30 59 H 8.975313 1.495291 -15.093248 0
M  V30 60 H 8.819263 2.426413 -17.934175 0
M  V30 61 H 10.435489 8.133272 -8.491162 0
M  V30 62 H 9.700023 8.970389 -9.839320 0
M  V30 63 H 11.991533 0.298031 -20.692405 0
M  V30 64 H 12.757468 1.805791 -20.274450 0
M  V30 65 H 8.974771 3.434865 -14.096931 0
M  V30 66 H 9.160959 2.882984 -12.448509 0
M  V30 67 H 7.460582 5.515506 -14.590918 0
M  V30 68 H 7.847277 0.687173 -13.116010 0
M  V30 69 H 9.908531 0.389335 -17.093020 0
M  V30 70 H 8.684866 -0.590825 -17.884564 0
M  V30 71 H 9.701262 5.492140 -18.798775 0
M  V30 72 H 7.682078 5.762446 -8.862356 0
M  V30 73 H 8.991356 3.989689 -7.978002 0
M  V30 74 H 10.236529 5.195221 -7.318234 0
M  V30 75 H 8.257227 8.619315 -11.690473 0
M  V30 76 H 6.396877 1.337903 -16.649027 0
M  V30 77 H 13.243644 1.048917 -17.996138 0
M  V30 78 H 12.352499 -0.423184 -18.238309 0
M  V30 79 H 10.335355 1.926155 -23.092924 0
M  V30 80 H 8.846590 0.855621 -23.206086 0
M  V30 81 H 7.352041 7.920443 -13.916149 0
M  V30 END ATOM
M  V30 BEGIN BOND
M  V30 1 1 7 6
M  V30 2 1 8 6
M  V30 3 1 15 10
M  V30 4 2 17 2
M  V30 5 1 19 5
M  V30 6 1 20 1
M  V30 7 1 19 20 CFG=1
M  V30 8 1 21 8
M  V30 9 1 22 6
M  V30 10 1 22 11
M  V30 11 1 22 12
M  V30 12 1 23 8
M  V30 13 1 24 2
M  V30 14 1 27 2
M  V30 15 1 27 13
M  V30 16 1 27 15
M  V30 17 1 28 24
M  V30 18 1 28 25
M  V30 19 1 29 16
M  V30 20 1 29 21
M  V30 21 2 30 4
M  V30 22 1 30 7
M  V30 23 1 31 19
M  V30 24 1 32 5
M  V30 25 1 32 26
M  V30 26 2 32 28
M  V30 27 1 33 31
M  V30 28 2 34 5
M  V30 29 1 35 9
M  V30 30 1 35 15
M  V30 31 1 35 16
M  V30 32 1 36 19
M  V30 33 1 36 26 CFG=3
M  V30 34 1 36 31
M  V30 35 1 36 33
M  V30 36 1 37 12
M  V30 37 2 37 14
M  V30 38 1 37 16
M  V30 39 2 37 18
M  V30 40 1 38 3
M  V30 41 1 38 23
M  V30 42 1 39 11
M  V30 43 1 39 22
M  V30 44 2 40 25
M  V30 45 1 40 34
M  V30 46 1 41 1
M  V30 47 1 42 3
M  V30 48 1 43 3
M  V30 49 1 44 3
M  V30 50 1 45 4
M  V30 51 1 46 4
M  V30 52 1 6 47 CFG=3
M  V30 53 1 8 48 CFG=1
M  V30 54 1 49 9
M  V30 55 1 50 9
M  V30 56 1 51 9
M  V30 57 1 52 10
M  V30 58 1 53 11
M  V30 59 1 54 11
M  V30 60 1 55 12
M  V30 61 1 56 13
M  V30 62 1 57 13
M  V30 63 1 58 13
M  V30 64 1 15 59 CFG=1
M  V30 65 1 16 60 CFG=3
M  V30 66 1 61 20
M  V30 67 1 62 20
M  V30 68 1 63 23
M  V30 69 1 64 23
M  V30 70 1 65 24
M  V30 71 1 66 24
M  V30 72 1 67 25
M  V30 73 1 27 68 CFG=1
M  V30 74 1 69 29
M  V30 75 1 70 29
M  V30 76 1 71 30
M  V30 77 1 31 72 CFG=3
M  V30 78 1 73 33
M  V30 79 1 74 33
M  V30 80 1 75 34
M  V30 81 1 35 76 CFG=3
M  V30 82 1 77 38
M  V30 83 1 78 38
M  V30 84 1 79 39
M  V30 85 1 80 39
M  V30 86 1 81 40
M  V30 END BOND
M  V30 END CTAB
M  END
>  <i_epik_Tot_Q>  (1) 
0

>  <i_epik_Tot_abs_Q>  (1) 
0

>  <i_i_glide_confnum>  (1) 
1962

>  <i_i_glide_lignum>  (1) 
48

>  <i_i_glide_posenum>  (1) 
298

>  <i_i_glide_rotatable_bonds>  (1) 
13

>  <i_lp_mmshare_version>  (1) 
72125

>  <i_m_source_file_index>  (1) 
28

>  <i_f3d_flags>  (1) 
2

>  <num_sample>  (1) 
100

>  <b_lp_Chiralities_Consistent>  (1) 
0

>  <r_epik_Charging_Adjusted_Penalty>  (1) 
0

>  <r_epik_Ionization_Penalty>  (1) 
0.00012193090232543848

>  <r_epik_Ionization_Penalty_Charging>  (1) 
0

>  <r_epik_Ionization_Penalty_Neutral>  (1) 
0.00012193090232543848

>  <r_epik_State_Penalty>  (1) 
-0

>  <r_glide_ring_energy>  (1) 
0

>  <r_i_docking_score>  (1) 
-3.1998801641227903

>  <r_i_glide_ecoul>  (1) 
-1.1589305009010491

>  <r_i_glide_eff_state_penalty>  (1) 
-0

>  <r_i_glide_einternal>  (1) 
10.862199483786757

>  <r_i_glide_emodel>  (1) 
-30.874703205019088

>  <r_i_glide_emodel_strain>  (1) 
0.619770966000047

>  <r_i_glide_energy>  (1) 
-31.163141608058165

>  <r_i_glide_erotb>  (1) 
0.53438368926625224

>  <r_i_glide_esite>  (1) 
0

>  <r_i_glide_evdw>  (1) 
-30.004211107157115

>  <r_i_glide_gscore>  (1) 
-3.1998801641227903

>  <r_i_glide_gscore_strain>  (1) 
0

>  <r_i_glide_hbond>  (1) 
-0.025756667507371857

>  <r_i_glide_ligand_efficiency>  (1) 
-0.079997004103069758

>  <r_i_glide_ligand_efficiency_ln>  (1) 
-0.6824402707378785

>  <r_i_glide_ligand_efficiency_sa>  (1) 
-0.27358590564489271

>  <r_i_glide_lipo>  (1) 
-1.4520583773290021

>  <r_i_glide_metal>  (1) 
-0

>  <r_i_glide_rewards>  (1) 
-0.58239867805965573

>  <r_lp_Energy>  (1) 
34.534008

>  <r_lp_tautomer_probability>  (1) 
1

>  <s_epik_cmdline>  (1) 
J2VwaWtfcHl0aG9uJywgJy1waHQnLCAnMS4wJywgJy1waCcsICc3LjQnLCAnLXRuJywgJzgnLCAnLW1hJywgJzUwMCcsICctaW1hZScsICc8aW5maWxlLm1hZT4nLCAnLW9tYWUnLCAnPG91dGZpbGUubWFlPic=

>  <s_epik_input>  (1) 
W09IXVtDSDJdW0NAQF0oW0NAXTEyMykoW0NIXTJbQ0gyXTMpYzRjKE8xKWMoW2NIXVtjSF1bY0hdNClbQ0gyXUMoPU8pW0NAQEhdKFtDSDNdKVtDQEBIXShbT0hdKVtDQEBIXShbQ0gzXSlbQ0BIXShTKD1PKSg9TylbTkhdNSlbQ0gyXU9bQ0BASF0oW0NIMl1bQ0gyXVtDSDNdKVtDQEhdKE9bQ0hdPVtDSDJdKUM1NltDSDJdW0NIMl02

>  <s_glide_docking_method>  (1) 
confgen

>  <s_i_glide_gridfile>  (1) 
gpcr_drd2_6luq_protein_autoprepared_prepared

>  <s_lp_Force_Field>  (1) 
S-OPLS

>  <s_lp_Variant>  (1) 
DiffSBDD_27-1

>  <s_m_source_file>  (1) 
generated_generic_title2_ligand_DiffSBDD_2026-06-23_prepared.sdf

>  <GenAI_Model>  (1) 
DiffSBDD

>  <Protein>  (1) 
generic_title2

$$$$
DiffSBDD_27
     RDKit          3D

  0  0  0  0  0  0  0  0  0  0999 V3000
M  V30 BEGIN CTAB
M  V30 COUNTS 81 86 0 0 1
M  V30 BEGIN ATOM
M  V30 1 O 11.334079 7.989711 -10.292352 0
M  V30 2 C 7.216049 2.649126 -13.185383 0
M  V30 3 C 14.298685 -0.824533 -18.541071 0
M  V30 4 C 12.384343 4.531251 -18.309875 0
M  V30 5 C 8.780725 6.602787 -11.185029 0
M  V30 6 C 10.769572 2.687507 -19.831922 0 CFG=1
M  V30 7 O 10.234583 3.798691 -19.105806 0
M  V30 8 C 11.159616 1.493763 -18.895241 0 CFG=1
M  V30 9 C 7.058027 3.232889 -16.295558 0
M  V30 10 O 8.114593 -0.303583 -15.341402 0
M  V30 11 C 9.530891 3.461541 -22.021843 0
M  V30 12 N 8.591832 1.610483 -20.573092 0
M  V30 13 C 5.830349 0.578204 -13.757466 0
M  V30 14 O 6.343265 1.215470 -19.402610 0
M  V30 15 C 7.965439 1.088462 -15.172904 0 CFG=2
M  V30 16 C 8.410067 1.696962 -17.716152 0 CFG=2
M  V30 17 O 6.187981 3.136495 -12.711451 0
M  V30 18 O 7.340750 3.553258 -19.441504 0
M  V30 19 C 9.260956 6.850891 -9.853729 0 CFG=1
M  V30 20 C 10.110189 8.078702 -9.591135 0
M  V30 21 O 10.221796 0.419209 -18.924511 0
M  V30 22 C 9.769262 2.403113 -20.967722 0
M  V30 23 C 12.503289 0.847479 -19.275628 0
M  V30 24 C 8.534585 3.424678 -13.196165 0
M  V30 25 C 7.865900 5.822994 -13.704293 0
M  V30 26 O 9.375334 4.469427 -10.615898 0
M  V30 27 C 7.226887 1.233146 -13.797201 0 CFG=1
M  V30 28 C 8.415275 4.877888 -12.805820 0
M  V30 29 C 9.249328 0.400774 -17.884714 0
M  V30 30 C 11.052648 4.690705 -18.440434 0
M  V30 31 C 8.664667 5.990272 -8.739866 0 CFG=1
M  V30 32 C 8.856075 5.308852 -11.550449 0
M  V30 33 C 9.548709 4.930791 -8.136306 0
M  V30 34 C 8.241673 7.575089 -12.048243 0
M  V30 35 C 7.417621 1.744966 -16.493204 0 CFG=2
M  V30 36 C 9.775381 5.416895 -9.542018 0 CFG=1
M  V30 37 S 7.515348 2.098520 -19.313879 0
M  V30 38 C 13.014879 -0.082660 -18.163921 0
M  V30 39 C 10.261386 2.191141 -22.382773 0
M  V30 40 C 7.775332 7.180049 -13.318657 0
M  V30 41 H 11.134313 7.795497 -11.195853 0
M  V30 42 H 14.576467 -1.517728 -17.747196 0
M  V30 43 H 14.174865 -1.406580 -19.454737 0
M  V30 44 H 15.129008 -0.135000 -18.694117 0
M  V30 45 H 12.976059 5.262149 -17.778601 0
M  V30 46 H 12.896968 3.681492 -18.724343 0
M  V30 47 H 11.667048 3.039421 -20.340325 0
M  V30 48 H 11.281143 1.868123 -17.877116 0
M  V30 49 H 7.947370 3.832097 -16.106921 0
M  V30 50 H 6.577438 3.665413 -17.168949 0
M  V30 51 H 6.370386 3.396407 -15.475050 0
M  V30 52 H 7.266506 -0.722955 -15.329316 0
M  V30 53 H 8.515356 3.584306 -22.393977 0
M  V30 54 H 10.115386 4.377316 -21.956624 0
M  V30 55 H 8.803671 0.615174 -20.502463 0
M  V30 56 H 5.425801 0.569463 -12.744813 0
M  V30 57 H 5.119441 1.102892 -14.384976 0
M  V30 58 H 5.856482 -0.456786 -14.089105 0
M  V30 59 H 8.975406 1.450879 -15.047751 0
M  V30 60 H 9.117257 2.498869 -17.541710 0
M  V30 61 H 10.319360 8.153466 -8.523720 0
M  V30 62 H 9.559953 8.974810 -9.874929 0
M  V30 63 H 12.391930 0.296758 -20.210748 0
M  V30 64 H 13.258996 1.610141 -19.460037 0
M  V30 65 H 8.940509 3.453514 -14.199353 0
M  V30 66 H 9.260104 2.914131 -12.561893 0
M  V30 67 H 7.517037 5.513279 -14.676100 0
M  V30 68 H 7.829603 0.667173 -13.084981 0
M  V30 69 H 9.822999 0.194576 -16.987603 0
M  V30 70 H 8.592551 -0.453834 -18.048042 0
M  V30 71 H 10.500158 5.528109 -18.038884 0
M  V30 72 H 7.647263 5.644291 -8.918243 0
M  V30 73 H 9.066924 3.976681 -7.984985 0
M  V30 74 H 10.256380 5.251709 -7.376105 0
M  V30 75 H 8.174753 8.607302 -11.738194 0
M  V30 76 H 6.503418 1.213722 -16.761075 0
M  V30 77 H 13.189125 0.492813 -17.253566 0
M  V30 78 H 12.243119 -0.809698 -17.913820 0
M  V30 79 H 11.330732 2.265424 -22.569692 0
M  V30 80 H 9.732510 1.470188 -23.002927 0
M  V30 81 H 7.355716 7.910257 -13.994593 0
M  V30 END ATOM
M  V30 BEGIN BOND
M  V30 1 1 7 6
M  V30 2 1 8 6
M  V30 3 1 15 10
M  V30 4 2 17 2
M  V30 5 1 19 5
M  V30 6 1 20 1
M  V30 7 1 19 20 CFG=1
M  V30 8 1 21 8
M  V30 9 1 22 6
M  V30 10 1 22 11
M  V30 11 1 22 12
M  V30 12 1 23 8
M  V30 13 1 24 2
M  V30 14 1 27 2
M  V30 15 1 27 13
M  V30 16 1 27 15
M  V30 17 1 28 24
M  V30 18 1 28 25
M  V30 19 1 29 16
M  V30 20 1 29 21
M  V30 21 2 30 4
M  V30 22 1 30 7
M  V30 23 1 31 19
M  V30 24 1 32 5
M  V30 25 1 32 26
M  V30 26 2 32 28
M  V30 27 1 33 31
M  V30 28 2 34 5
M  V30 29 1 35 9
M  V30 30 1 35 15
M  V30 31 1 35 16
M  V30 32 1 36 19
M  V30 33 1 36 26 CFG=3
M  V30 34 1 36 31
M  V30 35 1 36 33
M  V30 36 1 37 12
M  V30 37 2 37 14
M  V30 38 1 37 16
M  V30 39 2 37 18
M  V30 40 1 38 3
M  V30 41 1 38 23
M  V30 42 1 39 11
M  V30 43 1 39 22
M  V30 44 2 40 25
M  V30 45 1 40 34
M  V30 46 1 41 1
M  V30 47 1 42 3
M  V30 48 1 43 3
M  V30 49 1 44 3
M  V30 50 1 45 4
M  V30 51 1 46 4
M  V30 52 1 6 47 CFG=3
M  V30 53 1 8 48 CFG=1
M  V30 54 1 49 9
M  V30 55 1 50 9
M  V30 56 1 51 9
M  V30 57 1 52 10
M  V30 58 1 53 11
M  V30 59 1 54 11
M  V30 60 1 55 12
M  V30 61 1 56 13
M  V30 62 1 57 13
M  V30 63 1 58 13
M  V30 64 1 15 59 CFG=1
M  V30 65 1 16 60 CFG=1
M  V30 66 1 61 20
M  V30 67 1 62 20
M  V30 68 1 63 23
M  V30 69 1 64 23
M  V30 70 1 65 24
M  V30 71 1 66 24
M  V30 72 1 67 25
M  V30 73 1 27 68 CFG=1
M  V30 74 1 69 29
M  V30 75 1 70 29
M  V30 76 1 71 30
M  V30 77 1 31 72 CFG=3
M  V30 78 1 73 33
M  V30 79 1 74 33
M  V30 80 1 75 34
M  V30 81 1 35 76 CFG=3
M  V30 82 1 77 38
M  V30 83 1 78 38
M  V30 84 1 79 39
M  V30 85 1 80 39
M  V30 86 1 81 40
M  V30 END BOND
M  V30 END CTAB
M  END
>  <i_epik_Tot_Q>  (1) 
0

>  <i_epik_Tot_abs_Q>  (1) 
0

>  <i_i_glide_confnum>  (1) 
1962

>  <i_i_glide_lignum>  (1) 
48

>  <i_i_glide_posenum>  (1) 
249

>  <i_i_glide_rotatable_bonds>  (1) 
13

>  <i_lp_mmshare_version>  (1) 
72125

>  <i_m_source_file_index>  (1) 
28

>  <i_f3d_flags>  (1) 
2

>  <num_sample>  (1) 
100

>  <b_lp_Chiralities_Consistent>  (1) 
0

>  <r_epik_Charging_Adjusted_Penalty>  (1) 
0

>  <r_epik_Ionization_Penalty>  (1) 
0.00012193090232543848

>  <r_epik_Ionization_Penalty_Charging>  (1) 
0

>  <r_epik_Ionization_Penalty_Neutral>  (1) 
0.00012193090232543848

>  <r_epik_State_Penalty>  (1) 
-0

>  <r_glide_ring_energy>  (1) 
0

>  <r_i_docking_score>  (1) 
-3.1870747117023628

>  <r_i_glide_ecoul>  (1) 
-0.52154482659056267

>  <r_i_glide_eff_state_penalty>  (1) 
-0

>  <r_i_glide_einternal>  (1) 
6.4663330860807839

>  <r_i_glide_emodel>  (1) 
-31.445929272758512

>  <r_i_glide_emodel_strain>  (1) 
0.32380265370254335

>  <r_i_glide_energy>  (1) 
-29.26352657595034

>  <r_i_glide_erotb>  (1) 
0.53438368926625224

>  <r_i_glide_esite>  (1) 
0

>  <r_i_glide_evdw>  (1) 
-28.741981749359777

>  <r_i_glide_gscore>  (1) 
-3.1870747117023628

>  <r_i_glide_gscore_strain>  (1) 
0

>  <r_i_glide_hbond>  (1) 
-0.01636826467650021

>  <r_i_glide_ligand_efficiency>  (1) 
-0.079676867792559072

>  <r_i_glide_ligand_efficiency_ln>  (1) 
-0.67970924458424342

>  <r_i_glide_ligand_efficiency_sa>  (1) 
-0.27249105486363051

>  <r_i_glide_lipo>  (1) 
-1.5486872113436676

>  <r_i_glide_metal>  (1) 
-0

>  <r_i_glide_rewards>  (1) 
-0.64107211349187376

>  <r_lp_Energy>  (1) 
34.534008

>  <r_lp_tautomer_probability>  (1) 
1

>  <s_epik_cmdline>  (1) 
J2VwaWtfcHl0aG9uJywgJy1waHQnLCAnMS4wJywgJy1waCcsICc3LjQnLCAnLXRuJywgJzgnLCAnLW1hJywgJzUwMCcsICctaW1hZScsICc8aW5maWxlLm1hZT4nLCAnLW9tYWUnLCAnPG91dGZpbGUubWFlPic=

>  <s_epik_input>  (1) 
W09IXVtDSDJdW0NAQF0oW0NAXTEyMykoW0NIXTJbQ0gyXTMpYzRjKE8xKWMoW2NIXVtjSF1bY0hdNClbQ0gyXUMoPU8pW0NAQEhdKFtDSDNdKVtDQEBIXShbT0hdKVtDQEBIXShbQ0gzXSlbQ0BIXShTKD1PKSg9TylbTkhdNSlbQ0gyXU9bQ0BASF0oW0NIMl1bQ0gyXVtDSDNdKVtDQEhdKE9bQ0hdPVtDSDJdKUM1NltDSDJdW0NIMl02

>  <s_glide_docking_method>  (1) 
confgen

>  <s_i_glide_gridfile>  (1) 
gpcr_drd2_6luq_protein_autoprepared_prepared

>  <s_lp_Force_Field>  (1) 
S-OPLS

>  <s_lp_Variant>  (1) 
DiffSBDD_27-1

>  <s_m_source_file>  (1) 
generated_generic_title2_ligand_DiffSBDD_2026-06-23_prepared.sdf

>  <GenAI_Model>  (1) 
DiffSBDD

>  <Protein>  (1) 
generic_title2

$$$$
DiffSBDD_17
     RDKit          3D

  0  0  0  0  0  0  0  0  0  0999 V3000
M  V30 BEGIN CTAB
M  V30 COUNTS 42 43 0 0 1
M  V30 BEGIN ATOM
M  V30 1 Cl 11.661537 7.593712 -9.077742 0
M  V30 2 C 9.130948 6.702513 -9.308286 0
M  V30 3 C 10.160461 7.086943 -8.247741 0 CFG=2
M  V30 4 C 6.175214 6.990017 -17.718871 0
M  V30 5 C 11.124045 6.687356 -6.077477 0
M  V30 6 O 9.548872 5.631249 -10.147051 0
M  V30 7 C 8.411865 3.864566 -13.191062 0
M  V30 8 Cl 6.205242 7.190227 -13.743989 0
M  V30 9 C 11.362434 9.236438 -5.692350 0
M  V30 10 O 7.076124 5.535941 -16.013717 0
M  V30 11 O 3.985182 7.348295 -18.186032 0
M  V30 12 C 8.869530 5.370569 -11.324803 0
M  V30 13 O 11.019614 10.020586 -4.781604 0
M  V30 14 C 6.824657 4.512853 -15.053671 0
M  V30 15 C 7.964845 6.314421 -11.879636 0
M  V30 16 C 7.301034 6.032792 -13.082948 0
M  V30 17 C 10.418212 8.054884 -5.985238 0 CFG=1
M  V30 18 C 9.083738 4.146314 -11.986487 0
M  V30 19 C 9.686028 8.227106 -7.333949 0
M  V30 20 O 12.397081 9.331714 -6.386241 0 CHG=-1
M  V30 21 C 6.078277 5.635584 -17.015960 0
M  V30 22 C 10.449508 5.982299 -7.247355 0
M  V30 23 C 7.529359 4.809668 -13.746699 0
M  V30 24 N 5.036767 7.041791 -18.707394 0
M  V30 25 H 8.977236 7.623686 -9.863741 0
M  V30 26 H 8.209259 6.387625 -8.819911 0
M  V30 27 H 6.063160 7.814393 -17.010716 0
M  V30 28 H 7.107815 7.110358 -18.268677 0
M  V30 29 H 11.047256 6.111683 -5.154985 0
M  V30 30 H 12.175372 6.780630 -6.324501 0
M  V30 31 H 8.575842 2.921562 -13.691413 0
M  V30 32 H 7.122426 3.545044 -15.458206 0
M  V30 33 H 5.771565 4.444079 -14.793193 0
M  V30 34 H 7.777934 7.252790 -11.390210 0
M  V30 35 H 9.682426 7.990362 -5.191664 0
M  V30 36 H 9.765775 3.420759 -11.571158 0
M  V30 37 H 9.849914 9.189929 -7.805060 0
M  V30 38 H 8.610973 8.150632 -7.161623 0
M  V30 39 H 6.177537 4.819135 -17.731625 0
M  V30 40 H 5.088427 5.590189 -16.560938 0
M  V30 41 H 9.505438 5.555949 -6.908927 0
M  V30 42 H 11.049434 5.183170 -7.667590 0
M  V30 END ATOM
M  V30 BEGIN BOND
M  V30 1 1 3 1 CFG=3
M  V30 2 1 3 2
M  V30 3 1 6 2
M  V30 4 1 12 6
M  V30 5 2 13 9
M  V30 6 1 14 10
M  V30 7 2 15 12
M  V30 8 1 16 8
M  V30 9 1 16 15
M  V30 10 1 17 5
M  V30 11 1 17 9
M  V30 12 2 18 7
M  V30 13 1 18 12
M  V30 14 1 19 3
M  V30 15 1 19 17
M  V30 16 1 20 9
M  V30 17 1 21 4
M  V30 18 1 21 10
M  V30 19 1 22 3
M  V30 20 1 22 5
M  V30 21 1 23 7
M  V30 22 1 23 14
M  V30 23 2 23 16
M  V30 24 1 24 4
M  V30 25 2 24 11
M  V30 26 1 25 2
M  V30 27 1 26 2
M  V30 28 1 27 4
M  V30 29 1 28 4
M  V30 30 1 29 5
M  V30 31 1 30 5
M  V30 32 1 31 7
M  V30 33 1 32 14
M  V30 34 1 33 14
M  V30 35 1 34 15
M  V30 36 1 17 35 CFG=1
M  V30 37 1 36 18
M  V30 38 1 37 19
M  V30 39 1 38 19
M  V30 40 1 39 21
M  V30 41 1 40 21
M  V30 42 1 41 22
M  V30 43 1 42 22
M  V30 END BOND
M  V30 END CTAB
M  END
>  <i_epik_Tot_Q>  (1) 
-1

>  <i_epik_Tot_abs_Q>  (1) 
1

>  <i_i_glide_confnum>  (1) 
100

>  <i_i_glide_lignum>  (1) 
33

>  <i_i_glide_posenum>  (1) 
170

>  <i_i_glide_rotatable_bonds>  (1) 
9

>  <i_lp_mmshare_version>  (1) 
72125

>  <i_m_source_file_index>  (1) 
18

>  <i_f3d_flags>  (1) 
0

>  <num_sample>  (1) 
100

>  <b_lp_Chiralities_Consistent>  (1) 
1

>  <r_epik_Charging_Adjusted_Penalty>  (1) 
0.00012381605781317179

>  <r_epik_Ionization_Penalty>  (1) 
0.00012381605830283167

>  <r_epik_Ionization_Penalty_Charging>  (1) 
0.00012381605781317179

>  <r_epik_Ionization_Penalty_Neutral>  (1) 
4.8965987375008979e-13

>  <r_epik_State_Penalty>  (1) 
-0

>  <r_glide_ring_energy>  (1) 
0

>  <r_i_docking_score>  (1) 
-3.1836065378818148

>  <r_i_glide_ecoul>  (1) 
-3.794524744783951

>  <r_i_glide_eff_state_penalty>  (1) 
-0

>  <r_i_glide_einternal>  (1) 
8.5133086741474031

>  <r_i_glide_emodel>  (1) 
-31.319500562983201

>  <r_i_glide_emodel_strain>  (1) 
0.78596263894718987

>  <r_i_glide_energy>  (1) 
-30.493058007856582

>  <r_i_glide_erotb>  (1) 
0.96174401237487195

>  <r_i_glide_esite>  (1) 
0

>  <r_i_glide_evdw>  (1) 
-26.69853326307263

>  <r_i_glide_gscore>  (1) 
-3.1836065378818148

>  <r_i_glide_gscore_strain>  (1) 
0

>  <r_i_glide_hbond>  (1) 
0

>  <r_i_glide_ligand_efficiency>  (1) 
-0.13265027241174229

>  <r_i_glide_ligand_efficiency_ln>  (1) 
-0.76198313070003842

>  <r_i_glide_ligand_efficiency_sa>  (1) 
-0.38262959677399194

>  <r_i_glide_lipo>  (1) 
-1.7488776822681928

>  <r_i_glide_metal>  (1) 
-0

>  <r_i_glide_rewards>  (1) 
-0.49236749311726902

>  <r_lp_Energy>  (1) 
30.153981999999999

>  <r_lp_tautomer_probability>  (1) 
1

>  <s_epik_cmdline>  (1) 
J2VwaWtfcHl0aG9uJywgJy1waHQnLCAnMS4wJywgJy1waCcsICc3LjQnLCAnLXRuJywgJzgnLCAnLW1hJywgJzUwMCcsICctaW1hZScsICc8aW5maWxlLm1hZT4nLCAnLW9tYWUnLCAnPG91dGZpbGUubWFlPic=

>  <s_epik_input>  (1) 
Tz1DKFtPSF0pW0NAQEhdKFtDSDJdW0NIMl0xKVtDSDJdW0NAXTEoQ2wpW0NIMl1PYzJbY0hdYyhDbCljKFtjSF1bY0hdMilbQ0gyXU9bQ0gyXVtDSDJdTj1P

>  <s_glide_docking_method>  (1) 
confgen

>  <s_i_glide_gridfile>  (1) 
gpcr_drd2_6luq_protein_autoprepared_prepared

>  <s_lp_Force_Field>  (1) 
S-OPLS

>  <s_lp_Variant>  (1) 
DiffSBDD_17-2

>  <s_m_source_file>  (1) 
generated_generic_title2_ligand_DiffSBDD_2026-06-23_prepared.sdf

>  <GenAI_Model>  (1) 
DiffSBDD

>  <Protein>  (1) 
generic_title2

$$$$
DiffSBDD_87
     RDKit          3D

  0  0  0  0  0  0  0  0  0  0999 V3000
M  V30 BEGIN CTAB
M  V30 COUNTS 76 79 0 0 1
M  V30 BEGIN ATOM
M  V30 1 S 8.233591 4.324792 -19.333094 0
M  V30 2 C 11.201805 10.388534 -4.430564 0
M  V30 3 C 9.132092 7.577357 -8.161914 0
M  V30 4 C 11.464938 7.063914 -7.551739 0
M  V30 5 O 11.357870 2.493940 -19.723758 0
M  V30 6 C 8.275163 5.124360 -14.867243 0
M  V30 7 C 9.825809 6.233691 -12.604550 0
M  V30 8 C 11.408999 1.666866 -18.554159 0
M  V30 9 C 5.512179 3.933994 -19.769401 0
M  V30 10 C 7.838383 6.288601 -14.177669 0
M  V30 11 C 11.864437 5.997221 -5.172698 0
M  V30 12 C 10.478730 2.849760 -18.647579 0 CFG=2
M  V30 13 O 6.072997 5.190651 -17.838275 0
M  V30 14 C 10.579776 6.790437 -11.560150 0
M  V30 15 C 8.994154 2.714228 -18.929347 0
M  V30 16 C 6.553297 4.121506 -18.647654 0 CFG=2
M  V30 17 N 10.550841 7.997946 -8.268245 0 CFG=1 CHG=1
M  V30 18 C 6.151794 6.626545 -15.927708 0
M  V30 19 C 6.744100 7.014846 -14.717060 0
M  V30 20 C 11.510106 9.290258 -5.426982 0
M  V30 21 C 6.628314 5.508535 -16.622536 0
M  V30 22 C 7.674189 4.739924 -16.074316 0
M  V30 23 C 8.104903 7.902234 -12.236603 0
M  V30 24 C 9.696604 6.231550 -6.139360 0
M  V30 25 N 10.838843 8.140912 -5.259493 0
M  V30 26 C 11.034203 6.920898 -6.056132 0 CFG=2
M  V30 27 C 8.670690 7.087177 -6.785512 0
M  V30 28 O 12.335647 9.474703 -6.316560 0
M  V30 29 C 12.452319 8.562958 -9.887602 0
M  V30 30 C 4.845701 6.474037 -19.930526 0
M  V30 31 C 10.926158 8.474433 -9.650293 0 CFG=1
M  V30 32 C 8.575274 6.790584 -12.973629 0
M  V30 33 C 10.100440 7.878289 -10.832495 0
M  V30 34 C 5.217613 5.163561 -20.660888 0
M  V30 35 C 8.863546 8.435419 -11.183993 0
M  V30 36 H 10.175508 10.390396 -4.110139 0
M  V30 37 H 11.792228 10.226537 -3.531570 0
M  V30 38 H 11.375563 11.367639 -4.857697 0
M  V30 39 H 8.575473 8.484495 -8.385283 0
M  V30 40 H 8.918339 6.790568 -8.885739 0
M  V30 41 H 11.375670 6.098922 -8.055970 0
M  V30 42 H 12.508866 7.372471 -7.602316 0
M  V30 43 H 9.096143 4.541124 -14.489261 0
M  V30 44 H 10.234735 5.407141 -13.155264 0
M  V30 45 H 12.319251 1.765959 -17.965708 0
M  V30 46 H 11.019411 0.661652 -18.694074 0
M  V30 47 H 5.830943 3.109661 -20.408685 0
M  V30 48 H 4.575867 3.594572 -19.333826 0
M  V30 49 H 12.355055 5.190683 -5.722060 0
M  V30 50 H 12.575416 6.562493 -4.594389 0
M  V30 51 H 11.263462 5.588735 -4.366705 0
M  V30 52 H 10.775208 3.733423 -18.084527 0
M  V30 53 H 11.533489 6.390254 -11.339974 0
M  V30 54 H 8.526632 2.267043 -18.052646 0
M  V30 55 H 8.829531 2.017189 -19.751847 0
M  V30 56 H 6.533877 3.209825 -18.054206 0
M  V30 57 H 5.345722 7.212530 -16.340888 0
M  V30 58 H 6.389328 7.900998 -14.232187 0
M  V30 59 H 8.039764 3.871259 -16.589555 0
M  V30 60 H 7.167844 8.363267 -12.483268 0
M  V30 61 H 9.330702 5.990262 -5.148047 0
M  V30 62 H 9.772125 5.321649 -6.740478 0
M  V30 63 H 10.170416 8.086476 -4.505271 0
M  V30 64 H 8.402364 7.935969 -6.157778 0
M  V30 65 H 7.828852 6.390354 -6.828798 0
M  V30 66 H 12.688683 9.132928 -10.784582 0
M  V30 67 H 12.938472 9.092765 -9.068854 0
M  V30 68 H 12.930832 7.588790 -9.967889 0
M  V30 69 H 4.353125 7.173074 -20.606577 0
M  V30 70 H 4.199567 6.321274 -19.056838 0
M  V30 71 H 5.745009 6.977237 -19.571874 0
M  V30 72 H 10.608659 9.513581 -9.585072 0
M  V30 73 H 6.065870 5.347777 -21.319933 0
M  V30 74 H 4.391123 4.895926 -21.318034 0
M  V30 75 H 8.484927 9.283649 -10.634522 0
M  V30 76 H 10.620464 8.828489 -7.698108 0
M  V30 END ATOM
M  V30 BEGIN BOND
M  V30 1 1 8 5
M  V30 2 2 10 6
M  V30 3 1 12 5
M  V30 4 1 12 8
M  V30 5 2 14 7
M  V30 6 1 15 1
M  V30 7 1 15 12
M  V30 8 1 16 1
M  V30 9 1 16 9
M  V30 10 1 16 13
M  V30 11 1 17 3
M  V30 12 1 17 4
M  V30 13 1 19 10
M  V30 14 2 19 18
M  V30 15 1 20 2
M  V30 16 1 21 13
M  V30 17 1 21 18
M  V30 18 1 22 6
M  V30 19 2 22 21
M  V30 20 1 25 20
M  V30 21 1 26 4
M  V30 22 1 26 11
M  V30 23 1 26 24
M  V30 24 1 26 25 CFG=1
M  V30 25 1 27 3
M  V30 26 1 27 24
M  V30 27 2 28 20
M  V30 28 1 31 17
M  V30 29 1 31 29
M  V30 30 1 32 7
M  V30 31 1 32 10
M  V30 32 2 32 23
M  V30 33 1 33 14
M  V30 34 1 33 31
M  V30 35 1 34 9
M  V30 36 1 34 30
M  V30 37 1 35 23
M  V30 38 2 35 33
M  V30 39 1 36 2
M  V30 40 1 37 2
M  V30 41 1 38 2
M  V30 42 1 39 3
M  V30 43 1 40 3
M  V30 44 1 41 4
M  V30 45 1 42 4
M  V30 46 1 43 6
M  V30 47 1 44 7
M  V30 48 1 45 8
M  V30 49 1 46 8
M  V30 50 1 47 9
M  V30 51 1 48 9
M  V30 52 1 49 11
M  V30 53 1 50 11
M  V30 54 1 51 11
M  V30 55 1 12 52 CFG=1
M  V30 56 1 53 14
M  V30 57 1 54 15
M  V30 58 1 55 15
M  V30 59 1 16 56 CFG=1
M  V30 60 1 57 18
M  V30 61 1 58 19
M  V30 62 1 59 22
M  V30 63 1 60 23
M  V30 64 1 61 24
M  V30 65 1 62 24
M  V30 66 1 63 25
M  V30 67 1 64 27
M  V30 68 1 65 27
M  V30 69 1 66 29
M  V30 70 1 67 29
M  V30 71 1 68 29
M  V30 72 1 69 30
M  V30 73 1 70 30
M  V30 74 1 71 30
M  V30 75 1 31 72 CFG=1
M  V30 76 1 73 34
M  V30 77 1 74 34
M  V30 78 1 75 35
M  V30 79 1 17 76 CFG=1
M  V30 END BOND
M  V30 END CTAB
M  END
>  <i_epik_Tot_Q>  (1) 
1

>  <i_epik_Tot_abs_Q>  (1) 
1

>  <i_i_glide_confnum>  (1) 
586

>  <i_i_glide_lignum>  (1) 
158

>  <i_i_glide_posenum>  (1) 
164

>  <i_i_glide_rotatable_bonds>  (1) 
12

>  <i_lp_mmshare_version>  (1) 
72125

>  <i_m_source_file_index>  (1) 
88

>  <i_f3d_flags>  (1) 
0

>  <num_sample>  (1) 
100

>  <b_lp_Chiralities_Consistent>  (1) 
1

>  <r_epik_Charging_Adjusted_Penalty>  (1) 
0.24591797925462006

>  <r_epik_Ionization_Penalty>  (1) 
0.12295908446121387

>  <r_epik_Ionization_Penalty_Charging>  (1) 
0.12295898962731001

>  <r_epik_Ionization_Penalty_Neutral>  (1) 
9.4833903855356945e-08

>  <r_epik_State_Penalty>  (1) 
0.12295898962731003

>  <r_glide_ring_energy>  (1) 
0

>  <r_i_docking_score>  (1) 
-3.1744268364197161

>  <r_i_glide_ecoul>  (1) 
-1.4438964320590033

>  <r_i_glide_eff_state_penalty>  (1) 
0.12295898962731003

>  <r_i_glide_einternal>  (1) 
41.837350209133476

>  <r_i_glide_emodel>  (1) 
6.9973553887725473

>  <r_i_glide_emodel_strain>  (1) 
5.8177483093249833

>  <r_i_glide_energy>  (1) 
-8.0618456562933254

>  <r_i_glide_erotb>  (1) 
0.74116783978336576

>  <r_i_glide_esite>  (1) 
-0.011609675358701057

>  <r_i_glide_evdw>  (1) 
-6.6179492242343221

>  <r_i_glide_gscore>  (1) 
-3.2973858260470261

>  <r_i_glide_gscore_strain>  (1) 
0.45443707733124583

>  <r_i_glide_hbond>  (1) 
0

>  <r_i_glide_ligand_efficiency>  (1) 
-0.090697909611991895

>  <r_i_glide_ligand_efficiency_ln>  (1) 
-0.69685714320187597

>  <r_i_glide_ligand_efficiency_sa>  (1) 
-0.29667887653631658

>  <r_i_glide_lipo>  (1) 
-2.5684859425118294

>  <r_i_glide_metal>  (1) 
-0

>  <r_i_glide_rewards>  (1) 
-1.3654131992705409

>  <r_lp_Energy>  (1) 
38.466504999999998

>  <r_lp_tautomer_probability>  (1) 
1

>  <s_epik_Chemistry_Notes>  (1) 
This compound contains an acetal/aminal-like group ( X-CH(R)-Y where X, Y are N, S, or O) that may be acid/base labile, releasing an aldehyde.

>  <s_epik_cmdline>  (1) 
J2VwaWtfcHl0aG9uJywgJy1waHQnLCAnMS4wJywgJy1waCcsICc3LjQnLCAnLXRuJywgJzgnLCAnLW1hJywgJzUwMCcsICctaW1hZScsICc8aW5maWxlLm1hZT4nLCAnLW9tYWUnLCAnPG91dGZpbGUubWFlPic=

>  <s_epik_input>  (1) 
W0NIMl0xT1tDQEhdMVtDSDJdU1tDQEhdKFtDSDJdW0NIMl1bQ0gzXSlPYyhbY0hdW2NIXTIpW2NIXVtjSF1jMi1jM1tjSF1bY0hdYyhbY0hdW2NIXTMpW0NASF0oW0NIM10pTihbQ0gyXVtDSDJdW0NIMl00KVtDSDJdW0NAQF00KFtDSDNdKVtOSF1DKD1PKVtDSDNd

>  <s_glide_docking_method>  (1) 
confgen

>  <s_i_glide_gridfile>  (1) 
gpcr_drd2_6luq_protein_autoprepared_prepared

>  <s_lp_Force_Field>  (1) 
S-OPLS

>  <s_lp_Variant>  (1) 
DiffSBDD_87-2

>  <s_m_source_file>  (1) 
generated_generic_title2_ligand_DiffSBDD_2026-06-23_prepared.sdf

>  <GenAI_Model>  (1) 
DiffSBDD

>  <Protein>  (1) 
generic_title2

$$$$
DiffSBDD_90
     RDKit          3D

  0  0  0  0  0  0  0  0  0  0999 V3000
M  V30 BEGIN CTAB
M  V30 COUNTS 80 84 0 0 1
M  V30 BEGIN ATOM
M  V30 1 C 10.448292 5.520530 -18.890973 0
M  V30 2 C 10.199035 4.621982 -17.665403 0 CFG=1
M  V30 3 C 7.729011 5.293155 -15.069881 0
M  V30 4 C 14.352721 3.973248 -16.545048 0 CFG=2
M  V30 5 C 7.777188 5.579292 -17.235160 0
M  V30 6 C 7.171942 5.350500 -13.742604 0 CFG=2
M  V30 7 C 12.369540 2.287936 -19.282990 0 CFG=2
M  V30 8 O 12.717094 5.149402 -19.645298 0
M  V30 9 C 11.397171 4.686261 -19.767526 0 CFG=1
M  V30 10 C 13.440867 6.353917 -16.318201 0
M  V30 11 O 18.187031 6.184916 -17.533348 0
M  V30 12 C 8.989965 5.013657 -16.871368 0
M  V30 13 C 9.005145 2.449228 -18.699835 0 CFG=2
M  V30 14 O 17.376080 4.791145 -15.979561 0 CHG=-1
M  V30 15 O 15.359583 3.168119 -15.985258 0
M  V30 16 C 13.396384 2.293661 -18.088108 0 CFG=2
M  V30 17 N 14.062515 3.589668 -17.932348 0
M  V30 18 N 11.298865 3.310754 -19.270052 0
M  V30 19 C 16.252134 7.079288 -19.380384 0
M  V30 20 C 14.482198 1.188231 -18.234677 0
M  V30 21 O 7.756796 2.653986 -18.072793 0
M  V30 22 O 14.087837 -0.051745 -17.679252 0
M  V30 23 O 10.015535 -0.486451 -18.200760 0
M  V30 24 C 9.940594 1.858490 -17.673889 0 CFG=1
M  V30 25 C 17.263794 5.630455 -16.900330 0
M  V30 26 C 11.641649 0.920193 -19.336534 0
M  V30 27 N 7.068761 5.718291 -16.075124 0
M  V30 28 O 16.942113 6.277073 -20.012381 0
M  V30 29 C 5.797938 6.025825 -14.224377 0
M  V30 30 N 8.908498 4.852377 -15.502495 0 CHG=1
M  V30 31 C 14.710205 5.475085 -16.342668 0 CFG=2
M  V30 32 O 7.877605 4.755275 -11.082525 0
M  V30 33 O 7.935924 6.185649 -12.887360 0
M  V30 34 C 7.610990 6.040107 -11.542456 0
M  V30 35 C 16.184653 8.541354 -19.810324 0
M  V30 36 C 15.808174 6.032775 -17.277770 0
M  V30 37 C 10.813969 0.666333 -18.047322 0 CFG=2
M  V30 38 C 9.261285 4.447796 -11.045734 0
M  V30 39 N 15.476042 6.799835 -18.267439 0
M  V30 40 C 5.771197 6.246854 -15.816478 0
M  V30 41 C 10.252813 3.223886 -18.270142 0 CFG=1
M  V30 42 H 9.518985 5.672806 -19.440770 0
M  V30 43 H 10.839608 6.503978 -18.627560 0
M  V30 44 H 11.063882 4.707221 -17.005112 0
M  V30 45 H 13.460353 3.786008 -15.950639 0
M  V30 46 H 7.388744 5.882456 -18.196611 0
M  V30 47 H 7.056872 4.320912 -13.399605 0
M  V30 48 H 12.931398 2.404706 -20.210854 0
M  V30 49 H 12.922652 5.691423 -20.393625 0
M  V30 50 H 11.109066 4.728611 -20.818509 0
M  V30 51 H 13.682555 7.388967 -16.072884 0
M  V30 52 H 12.925097 6.353409 -17.277104 0
M  V30 53 H 12.737088 6.002383 -15.563934 0
M  V30 54 H 8.937812 1.988640 -19.682829 0
M  V30 55 H 16.147707 3.713182 -15.893785 0
M  V30 56 H 12.847271 2.103276 -17.167365 0
M  V30 57 H 13.522296 4.315257 -18.420630 0
M  V30 58 H 15.408820 1.458708 -17.737292 0
M  V30 59 H 14.747143 1.045907 -19.283595 0
M  V30 60 H 7.358800 1.809679 -17.916254 0
M  V30 61 H 13.397166 -0.416168 -18.209736 0
M  V30 62 H 9.431397 -0.368841 -18.934452 0
M  V30 63 H 9.591695 1.845664 -16.642951 0
M  V30 64 H 10.980957 0.910364 -20.204528 0
M  V30 65 H 12.335378 0.102897 -19.522479 0
M  V30 66 H 4.959665 5.399272 -13.919214 0
M  V30 67 H 5.659079 6.985966 -13.725659 0
M  V30 68 H 15.088444 5.571121 -15.323133 0
M  V30 69 H 8.181745 6.767393 -10.963745 0
M  V30 70 H 6.554532 6.261743 -11.383771 0
M  V30 71 H 15.149170 8.857021 -19.938257 0
M  V30 72 H 16.647930 9.177987 -19.056376 0
M  V30 73 H 16.709724 8.693318 -20.753565 0
M  V30 74 H 11.471835 0.465882 -17.200524 0
M  V30 75 H 9.390151 3.399021 -10.785576 0
M  V30 76 H 9.741370 4.606268 -12.012605 0
M  V30 77 H 9.769902 5.053065 -10.295478 0
M  V30 78 H 5.737896 7.296617 -16.110120 0
M  V30 79 H 5.014687 5.659414 -16.336900 0
M  V30 80 H 9.636243 4.467684 -14.911637 0
M  V30 END ATOM
M  V30 BEGIN BOND
M  V30 1 1 2 1
M  V30 2 1 6 3
M  V30 3 1 9 1
M  V30 4 1 9 8
M  V30 5 1 12 2
M  V30 6 2 12 5
M  V30 7 1 15 4
M  V30 8 1 16 7
M  V30 9 1 17 4
M  V30 10 1 17 16
M  V30 11 1 18 7
M  V30 12 1 18 9
M  V30 13 1 20 16
M  V30 14 1 21 13
M  V30 15 1 22 20
M  V30 16 1 24 13
M  V30 17 2 25 11
M  V30 18 1 25 14
M  V30 19 1 26 7
M  V30 20 1 27 3
M  V30 21 1 27 5
M  V30 22 2 28 19
M  V30 23 1 29 6
M  V30 24 2 30 3
M  V30 25 1 30 12
M  V30 26 1 31 4
M  V30 27 1 31 10
M  V30 28 1 33 6
M  V30 29 1 34 32
M  V30 30 1 34 33
M  V30 31 1 35 19
M  V30 32 1 36 25
M  V30 33 1 36 31
M  V30 34 1 37 23
M  V30 35 1 37 24
M  V30 36 1 37 26
M  V30 37 1 38 32
M  V30 38 1 39 19
M  V30 39 2 39 36
M  V30 40 1 40 27
M  V30 41 1 40 29
M  V30 42 1 41 2
M  V30 43 1 41 13
M  V30 44 1 41 18 CFG=3
M  V30 45 1 41 24
M  V30 46 1 42 1
M  V30 47 1 43 1
M  V30 48 1 2 44 CFG=1
M  V30 49 1 4 45 CFG=1
M  V30 50 1 46 5
M  V30 51 1 6 47 CFG=1
M  V30 52 1 7 48 CFG=3
M  V30 53 1 49 8
M  V30 54 1 9 50 CFG=3
M  V30 55 1 51 10
M  V30 56 1 52 10
M  V30 57 1 53 10
M  V30 58 1 13 54 CFG=3
M  V30 59 1 55 15
M  V30 60 1 16 56 CFG=1
M  V30 61 1 57 17
M  V30 62 1 58 20
M  V30 63 1 59 20
M  V30 64 1 60 21
M  V30 65 1 61 22
M  V30 66 1 62 23
M  V30 67 1 24 63 CFG=1
M  V30 68 1 64 26
M  V30 69 1 65 26
M  V30 70 1 66 29
M  V30 71 1 67 29
M  V30 72 1 31 68 CFG=1
M  V30 73 1 69 34
M  V30 74 1 70 34
M  V30 75 1 71 35
M  V30 76 1 72 35
M  V30 77 1 73 35
M  V30 78 1 37 74 CFG=1
M  V30 79 1 75 38
M  V30 80 1 76 38
M  V30 81 1 77 38
M  V30 82 1 78 40
M  V30 83 1 79 40
M  V30 84 1 80 30
M  V30 END BOND
M  V30 END CTAB
M  END
>  <i_epik_Tot_Q>  (1) 
0

>  <i_epik_Tot_abs_Q>  (1) 
2

>  <i_i_glide_confnum>  (1) 
2952

>  <i_i_glide_lignum>  (1) 
173

>  <i_i_glide_posenum>  (1) 
259

>  <i_i_glide_rotatable_bonds>  (1) 
17

>  <i_lp_mmshare_version>  (1) 
72125

>  <i_m_source_file_index>  (1) 
91

>  <i_f3d_flags>  (1) 
0

>  <num_sample>  (1) 
100

>  <b_lp_Chiralities_Consistent>  (1) 
1

>  <r_epik_Charging_Adjusted_Penalty>  (1) 
1.2730775069092737

>  <r_epik_Ionization_Penalty>  (1) 
0.33079184029548347

>  <r_epik_Ionization_Penalty_Charging>  (1) 
4.3976256739559524e-06

>  <r_epik_Ionization_Penalty_Neutral>  (1) 
0.33078744266980953

>  <r_epik_State_Penalty>  (1) 
1.2730731092835996

>  <r_glide_ring_energy>  (1) 
0

>  <r_i_docking_score>  (1) 
-3.1733089905064529

>  <r_i_glide_ecoul>  (1) 
-4.4168344079748696

>  <r_i_glide_eff_state_penalty>  (1) 
1.2730731092835996

>  <r_i_glide_einternal>  (1) 
8.1663365237415348

>  <r_i_glide_emodel>  (1) 
-46.08296455576285

>  <r_i_glide_emodel_strain>  (1) 
0.33722411249834749

>  <r_i_glide_energy>  (1) 
-39.511107892429074

>  <r_i_glide_erotb>  (1) 
0.57888693115673628

>  <r_i_glide_esite>  (1) 
-0.089678234873450682

>  <r_i_glide_evdw>  (1) 
-35.094273484454206

>  <r_i_glide_gscore>  (1) 
-4.4463820997900525

>  <r_i_glide_gscore_strain>  (1) 
0

>  <r_i_glide_hbond>  (1) 
-0.13110849782648656

>  <r_i_glide_ligand_efficiency>  (1) 
-0.077397780256254947

>  <r_i_glide_ligand_efficiency_ln>  (1) 
-0.67322806262410773

>  <r_i_glide_ligand_efficiency_sa>  (1) 
-0.26688436024697243

>  <r_i_glide_lipo>  (1) 
-1.6040156545522035

>  <r_i_glide_metal>  (1) 
-0

>  <r_i_glide_rewards>  (1) 
-0.78322780827570682

>  <r_lp_Energy>  (1) 
68.250592999999995

>  <s_epik_Chemistry_Notes>  (1) 
This compound has an imine and may undergo hydrolysis. This compound contains an acetal/aminal-like group ( X-CH(R)-Y where X, Y are N, S, or O) that may be acid/base labile, releasing an aldehyde.

>  <s_epik_cmdline>  (1) 
J2VwaWtfcHl0aG9uJywgJy1waHQnLCAnMS4wJywgJy1waCcsICc3LjQnLCAnLXRuJywgJzgnLCAnLW1hJywgJzUwMCcsICctaW1hZScsICc8aW5maWxlLm1hZT4nLCAnLW9tYWUnLCAnPG91dGZpbGUubWFlPic=

>  <s_epik_input>  (1) 
W0NIM11PW0NIMl1PW0NASF0xW0NIMl1bQ0gyXW4oYzEyKVtjSF1jKG4yKVtDQEBIXTNbQ0gyXVtDQEBIXShbT0hdKU4oW0NAQF0zNDUpW0NASF0oW0NIMl1bQ0BIXShbT0hdKVtDQEBIXTVbQ0BIXTRbT0hdKVtDQEBIXShbQ0gyXVtPSF0pW05IXVtDQEBIXShbT0hdKVtDQEhdKFtDSDNdKUMoXEMoPU8pW09IXSk9TlxDKD1PKVtDSDNd

>  <s_glide_docking_method>  (1) 
confgen

>  <s_i_glide_gridfile>  (1) 
gpcr_drd2_6luq_protein_autoprepared_prepared

>  <s_lp_Force_Field>  (1) 
S-OPLS

>  <s_lp_Variant>  (1) 
DiffSBDD_90-8

>  <s_m_source_file>  (1) 
generated_generic_title2_ligand_DiffSBDD_2026-06-23_prepared.sdf

>  <GenAI_Model>  (1) 
DiffSBDD

>  <Protein>  (1) 
generic_title2

$$$$
DiffSBDD_78
     RDKit          3D

  0  0  0  0  0  0  0  0  0  0999 V3000
M  V30 BEGIN CTAB
M  V30 COUNTS 81 85 0 0 1
M  V30 BEGIN ATOM
M  V30 1 C 10.179298 8.044402 -8.985726 0 CFG=2
M  V30 2 C 11.611040 8.103721 -9.554203 0
M  V30 3 C 6.642339 6.150522 -17.291586 0 CFG=1
M  V30 4 C 8.854380 4.998364 -16.628905 0 CFG=2
M  V30 5 C 10.172468 7.832480 -7.470595 0
M  V30 6 N 11.202324 5.565430 -15.958891 0 CHG=1
M  V30 7 C 7.651686 4.022249 -16.876255 0 CFG=1
M  V30 8 C 6.454889 5.068560 -14.902901 0 CFG=1
M  V30 9 N 9.375444 6.906466 -9.491117 0 CFG=2 CHG=1
M  V30 10 C 9.534964 5.757298 -8.575147 0
M  V30 11 N 6.721769 5.073213 -13.408470 0 CFG=2 CHG=1
M  V30 12 C 6.515000 7.684335 -15.287238 0
M  V30 13 C 10.152742 4.521039 -15.986990 0
M  V30 14 C 12.775938 4.838094 -17.655158 0
M  V30 15 O 8.373509 5.990225 -15.718382 0
M  V30 16 C 5.486539 5.277028 -12.611369 0
M  V30 17 C 13.724062 5.261610 -18.789054 0 CFG=1
M  V30 18 C 5.380995 5.589412 -17.762623 0
M  V30 19 C 6.971015 6.275535 -15.782684 0 CFG=2
M  V30 20 F 12.984767 5.555494 -19.860392 0
M  V30 21 C 10.194128 6.311897 -7.303923 0
M  V30 22 C 5.431632 8.385669 -16.151453 0
M  V30 23 O 12.644349 7.123578 -16.909649 0
M  V30 24 C 6.980302 3.742918 -15.514818 0
M  V30 25 C 14.490747 6.527978 -18.366367 0 CFG=1
M  V30 26 C 8.193131 5.743586 -11.386901 0
M  V30 27 C 11.865164 6.039291 -17.310616 0 CFG=2
M  V30 28 C 9.377883 6.636382 -10.950103 0
M  V30 29 C 7.903235 5.851023 -12.906787 0
M  V30 30 C 14.668348 4.123235 -19.205704 0
M  V30 31 C 13.517952 7.629416 -17.911373 0
M  V30 32 C 6.707592 4.754511 -17.859032 0 CFG=1
M  V30 33 F 15.332240 6.251001 -17.367046 0
M  V30 34 H 9.665477 8.975746 -9.229563 0
M  V30 35 H 12.177175 8.907055 -9.080471 0
M  V30 36 H 12.158646 7.181565 -9.375113 0
M  V30 37 H 11.618653 8.297960 -10.624890 0
M  V30 38 H 7.107476 6.910584 -17.920218 0
M  V30 39 H 9.117658 5.450153 -17.587477 0
M  V30 40 H 9.244479 8.227773 -7.052077 0
M  V30 41 H 11.001237 8.324539 -6.960615 0
M  V30 42 H 10.797337 6.376692 -15.513622 0
M  V30 43 H 7.988753 3.097352 -17.342227 0
M  V30 44 H 5.375235 5.072427 -15.016231 0
M  V30 45 H 8.550968 5.340382 -8.363335 0
M  V30 46 H 10.147849 4.970195 -9.012970 0
M  V30 47 H 7.374768 8.340523 -15.185152 0
M  V30 48 H 6.102929 7.608684 -14.283653 0
M  V30 49 H 9.963957 4.390292 -14.925106 0
M  V30 50 H 10.518217 3.593195 -16.423240 0
M  V30 51 H 13.344526 4.532009 -16.776992 0
M  V30 52 H 12.163328 3.992273 -17.970498 0
M  V30 53 H 5.171052 6.321084 -12.614019 0
M  V30 54 H 4.675068 4.662586 -13.007250 0
M  V30 55 H 5.615056 4.956187 -11.577675 0
M  V30 56 H 4.985913 5.956069 -18.707826 0
M  V30 57 H 4.643676 5.589464 -16.970339 0
M  V30 58 H 9.675559 5.990673 -6.399634 0
M  V30 59 H 11.222287 5.955076 -7.241296 0
M  V30 60 H 5.363468 9.453141 -15.984728 0
M  V30 61 H 4.451592 7.941277 -15.986517 0
M  V30 62 H 5.617907 8.363698 -17.220665 0
M  V30 63 H 6.189862 2.995022 -15.580191 0
M  V30 64 H 7.733395 3.294974 -14.866341 0
M  V30 65 H 15.109941 6.892393 -19.187502 0
M  V30 66 H 7.319607 6.046924 -10.812216 0
M  V30 67 H 8.386614 4.706639 -11.110992 0
M  V30 68 H 11.146559 6.311415 -18.085676 0
M  V30 69 H 10.321641 6.205930 -11.276008 0
M  V30 70 H 9.290584 7.602779 -11.449161 0
M  V30 71 H 8.795195 5.498596 -13.414764 0
M  V30 72 H 7.801526 6.905424 -13.151972 0
M  V30 73 H 15.281928 3.780806 -18.369815 0
M  V30 74 H 14.106939 3.266140 -19.581043 0
M  V30 75 H 15.342541 4.446014 -20.001498 0
M  V30 76 H 12.929775 8.003920 -18.749009 0
M  V30 77 H 14.067694 8.478093 -17.502894 0
M  V30 78 H 7.054874 4.653465 -18.886406 0
M  V30 79 H 8.415623 7.221495 -9.316949 0
M  V30 80 H 6.960859 4.111543 -13.209532 0
M  V30 81 H 11.932271 5.229909 -15.342642 0
M  V30 END ATOM
M  V30 BEGIN BOND
M  V30 1 1 2 1
M  V30 2 1 5 1
M  V30 3 1 7 4
M  V30 4 1 9 1
M  V30 5 1 10 9
M  V30 6 1 11 8
M  V30 7 1 13 4
M  V30 8 1 13 6
M  V30 9 1 15 4
M  V30 10 1 16 11
M  V30 11 1 17 14
M  V30 12 1 18 3
M  V30 13 1 19 3
M  V30 14 1 19 8
M  V30 15 1 19 12 CFG=1
M  V30 16 1 19 15
M  V30 17 1 17 20 CFG=3
M  V30 18 1 21 5
M  V30 19 1 21 10
M  V30 20 1 22 12
M  V30 21 1 24 7
M  V30 22 1 24 8
M  V30 23 1 25 17
M  V30 24 1 27 6
M  V30 25 1 27 14
M  V30 26 1 27 23
M  V30 27 1 28 9
M  V30 28 1 28 26
M  V30 29 1 29 11
M  V30 30 1 29 26
M  V30 31 1 30 17
M  V30 32 1 31 23
M  V30 33 1 31 25
M  V30 34 1 32 3
M  V30 35 1 32 7
M  V30 36 1 32 18
M  V30 37 1 33 25
M  V30 38 1 1 34 CFG=1
M  V30 39 1 35 2
M  V30 40 1 36 2
M  V30 41 1 37 2
M  V30 42 1 3 38 CFG=3
M  V30 43 1 4 39 CFG=3
M  V30 44 1 40 5
M  V30 45 1 41 5
M  V30 46 1 42 6
M  V30 47 1 7 43 CFG=3
M  V30 48 1 8 44 CFG=1
M  V30 49 1 45 10
M  V30 50 1 46 10
M  V30 51 1 47 12
M  V30 52 1 48 12
M  V30 53 1 49 13
M  V30 54 1 50 13
M  V30 55 1 51 14
M  V30 56 1 52 14
M  V30 57 1 53 16
M  V30 58 1 54 16
M  V30 59 1 55 16
M  V30 60 1 56 18
M  V30 61 1 57 18
M  V30 62 1 58 21
M  V30 63 1 59 21
M  V30 64 1 60 22
M  V30 65 1 61 22
M  V30 66 1 62 22
M  V30 67 1 63 24
M  V30 68 1 64 24
M  V30 69 1 25 65 CFG=3
M  V30 70 1 66 26
M  V30 71 1 67 26
M  V30 72 1 27 68 CFG=3
M  V30 73 1 69 28
M  V30 74 1 70 28
M  V30 75 1 71 29
M  V30 76 1 72 29
M  V30 77 1 73 30
M  V30 78 1 74 30
M  V30 79 1 75 30
M  V30 80 1 76 31
M  V30 81 1 77 31
M  V30 82 1 32 78 CFG=3
M  V30 83 1 9 79 CFG=1
M  V30 84 1 11 80 CFG=1
M  V30 85 1 81 6
M  V30 END BOND
M  V30 END CTAB
M  END
>  <i_epik_Tot_Q>  (1) 
3

>  <i_epik_Tot_abs_Q>  (1) 
3

>  <i_i_glide_confnum>  (1) 
177

>  <i_i_glide_lignum>  (1) 
133

>  <i_i_glide_posenum>  (1) 
65

>  <i_i_glide_rotatable_bonds>  (1) 
9

>  <i_lp_mmshare_version>  (1) 
72125

>  <i_m_source_file_index>  (1) 
79

>  <i_f3d_flags>  (1) 
0

>  <num_sample>  (1) 
100

>  <b_lp_Chiralities_Consistent>  (1) 
1

>  <r_epik_Charging_Adjusted_Penalty>  (1) 
1.7942086838225126

>  <r_epik_Ionization_Penalty>  (1) 
0.94562311220168549

>  <r_epik_Ionization_Penalty_Charging>  (1) 
0.94562311220168382

>  <r_epik_Ionization_Penalty_Neutral>  (1) 
1.710257484888175e-15

>  <r_epik_State_Penalty>  (1) 
0.84858557162082893

>  <r_glide_ring_energy>  (1) 
0

>  <r_i_docking_score>  (1) 
-3.1699374275208232

>  <r_i_glide_ecoul>  (1) 
-10.187779276495819

>  <r_i_glide_eff_state_penalty>  (1) 
0.84858557162082893

>  <r_i_glide_einternal>  (1) 
4.3323741219199476

>  <r_i_glide_emodel>  (1) 
-32.055662623296115

>  <r_i_glide_emodel_strain>  (1) 
7.6546880311925065

>  <r_i_glide_energy>  (1) 
-32.086324458656755

>  <r_i_glide_erotb>  (1) 
0.72404097212868179

>  <r_i_glide_esite>  (1) 
-0.10000000000000001

>  <r_i_glide_evdw>  (1) 
-21.898545182160937

>  <r_i_glide_gscore>  (1) 
-4.018522999141652

>  <r_i_glide_gscore_strain>  (1) 
0.91367200779812663

>  <r_i_glide_hbond>  (1) 
-0.20000000000000001

>  <r_i_glide_ligand_efficiency>  (1) 
-0.096058709924873434

>  <r_i_glide_ligand_efficiency_ln>  (1) 
-0.7049776708230393

>  <r_i_glide_ligand_efficiency_sa>  (1) 
-0.30811160977914237

>  <r_i_glide_lipo>  (1) 
-1.498573753718462

>  <r_i_glide_metal>  (1) 
-0

>  <r_i_glide_rewards>  (1) 
-1.2345680747675789

>  <r_lp_Energy>  (1) 
78.433422999999991

>  <s_epik_Chemistry_Notes>  (1) 
This compound contains an acetal/aminal-like group ( X-CH(R)-Y where X, Y are N, S, or O) that may be acid/base labile, releasing an aldehyde.

>  <s_epik_cmdline>  (1) 
J2VwaWtfcHl0aG9uJywgJy1waHQnLCAnMS4wJywgJy1waCcsICc3LjQnLCAnLXRuJywgJzgnLCAnLW1hJywgJzUwMCcsICctaW1hZScsICc8aW5maWxlLm1hZT4nLCAnLW9tYWUnLCAnPG91dGZpbGUubWFlPic=

>  <s_epik_input>  (1) 
W0NIM11bQ0BASF0xW0NIMl1bQ0gyXVtDSDJdTjFbQ0gyXVtDSDJdW0NIMl1OKFtDSDNdKVtDQEBIXTJbQ0gyXVtDQEBIXShbQ0BASF0oW0NIMl0zKVtDQEBIXTNbQ0BAXTI0W0NIMl1bQ0gzXSlbQ0BASF0oTzQpW0NIMl1bTkhdW0NASF0oW0NIMl1bQ0BdNShGKVtDSDNdKU9bQ0gyXVtDQEhdNUY=

>  <s_glide_docking_method>  (1) 
confgen

>  <s_i_glide_gridfile>  (1) 
gpcr_drd2_6luq_protein_autoprepared_prepared

>  <s_lp_Force_Field>  (1) 
S-OPLS

>  <s_lp_Variant>  (1) 
DiffSBDD_78-5

>  <s_m_source_file>  (1) 
generated_generic_title2_ligand_DiffSBDD_2026-06-23_prepared.sdf

>  <GenAI_Model>  (1) 
DiffSBDD

>  <Protein>  (1) 
generic_title2

$$$$
DiffSBDD_80
     RDKit          3D

  0  0  0  0  0  0  0  0  0  0999 V3000
M  V30 BEGIN CTAB
M  V30 COUNTS 81 87 0 0 1
M  V30 BEGIN ATOM
M  V30 1 C 9.545349 6.368584 -11.608694 0
M  V30 2 C 8.031151 1.946381 -20.493294 0
M  V30 3 C 7.272503 5.954989 -15.279230 0
M  V30 4 O 8.933904 3.859236 -21.652699 0
M  V30 5 N 9.161580 8.518887 -7.195854 0 CHG=1
M  V30 6 C 5.038793 7.352744 -16.144764 0
M  V30 7 C 6.679478 6.896546 -14.406857 0
M  V30 8 C 8.596562 3.367743 -20.578475 0
M  V30 9 C 7.341779 8.356306 -12.327446 0
M  V30 10 C 11.361047 6.701044 -7.570987 0 CFG=2
M  V30 11 C 10.053691 8.305072 -6.029596 0 CFG=2
M  V30 12 C 7.447862 4.052042 -18.405031 0 CFG=2
M  V30 13 C 9.556664 5.757764 -9.079729 0 CFG=2
M  V30 14 O 8.781405 4.253679 -10.787458 0
M  V30 15 C 7.058352 2.565213 -18.221625 0
M  V30 16 C 8.730190 4.149500 -19.262913 0
M  V30 17 N 8.338562 5.187235 -15.124689 0
M  V30 18 O 7.861036 4.390226 -7.996745 0
M  V30 19 C 9.759801 8.366396 -8.548749 0
M  V30 20 C 5.535818 7.589987 -14.846907 0
M  V30 21 O 11.481933 7.190346 -9.724698 0
M  V30 22 C 8.841077 6.469368 -12.972261 0 CFG=2
M  V30 23 C 9.196531 3.990241 -13.188173 0
M  V30 24 C 7.381517 6.974737 -13.017568 0 CFG=2
M  V30 25 C 5.665297 6.398845 -16.982277 0
M  V30 26 O 10.575428 9.589611 -5.787074 0
M  V30 27 C 7.593176 4.727078 -17.040595 0
M  V30 28 C 10.474708 7.001033 -8.754607 0 CFG=1
M  V30 29 C 6.789998 5.718247 -16.461700 0
M  V30 30 N 8.616174 4.311110 -16.253972 0
M  V30 31 C 10.575405 5.590228 -14.692041 0
M  V30 32 C 6.805996 1.868932 -19.567053 0
M  V30 33 C 11.190268 7.359995 -6.245268 0 CFG=2
M  V30 34 C 8.831305 5.640180 -10.471042 0 CFG=2
M  V30 35 C 9.207963 5.322657 -13.971813 0 CFG=1
M  V30 36 C 5.131976 6.149348 -18.374655 0
M  V30 37 O 12.175307 7.809831 -7.185030 0
M  V30 38 C 8.563374 5.582301 -7.930737 0
M  V30 39 C 8.204733 3.854862 -12.031162 0
M  V30 40 H 9.708186 7.391536 -11.281243 0
M  V30 41 H 10.541305 5.948654 -11.755642 0
M  V30 42 H 7.763342 1.595241 -21.490586 0
M  V30 43 H 8.959465 5.191158 -19.486997 0
M  V30 44 H 8.816639 1.286496 -20.125607 0
M  V30 45 H 8.762496 9.442801 -7.119716 0
M  V30 46 H 4.169517 7.892694 -16.493273 0
M  V30 47 H 6.335425 8.603815 -11.985021 0
M  V30 48 H 7.897789 8.388627 -11.400888 0
M  V30 49 H 7.775409 9.136855 -12.953344 0
M  V30 50 H 11.775400 5.705611 -7.490644 0
M  V30 51 H 9.471544 7.948367 -5.188558 0
M  V30 52 H 6.711997 4.496020 -19.045098 0
M  V30 53 H 10.191036 4.878479 -9.026072 0
M  V30 54 H 7.850634 2.039789 -17.685738 0
M  V30 55 H 6.175378 2.466170 -17.596645 0
M  V30 56 H 9.581626 3.741980 -18.718979 0
M  V30 57 H 7.304937 4.404205 -8.764582 0
M  V30 58 H 10.472375 9.181834 -8.680367 0
M  V30 59 H 8.989173 8.517891 -9.302817 0
M  V30 60 H 5.029096 8.290967 -14.203115 0
M  V30 61 H 11.074987 7.326706 -10.565910 0
M  V30 62 H 9.375437 7.367317 -13.185025 0
M  V30 63 H 10.175374 3.756451 -12.784989 0
M  V30 64 H 8.948247 3.189692 -13.871970 0
M  V30 65 H 6.773124 6.329728 -12.389382 0
M  V30 66 H 11.513682 9.544947 -5.919230 0
M  V30 67 H 11.334101 5.990242 -14.020422 0
M  V30 68 H 10.957412 4.691498 -15.184854 0
M  V30 69 H 10.547402 6.226142 -15.585027 0
M  V30 70 H 5.939932 2.316605 -20.057166 0
M  V30 71 H 6.549093 0.823350 -19.388113 0
M  V30 72 H 11.617802 6.895211 -5.357467 0
M  V30 73 H 7.805865 5.992316 -10.379912 0
M  V30 74 H 4.213514 6.714728 -18.535058 0
M  V30 75 H 5.845809 6.485349 -19.125816 0
M  V30 76 H 4.889006 5.106748 -18.524738 0
M  V30 77 H 7.838011 6.368602 -7.984969 0
M  V30 78 H 9.040388 5.622010 -6.954185 0
M  V30 79 H 8.020086 2.790809 -11.985033 0
M  V30 80 H 7.226990 4.290115 -12.220226 0
M  V30 81 H 8.394375 7.857423 -7.146371 0
M  V30 END ATOM
M  V30 BEGIN BOND
M  V30 1 2 7 3
M  V30 2 1 8 2
M  V30 3 2 8 4
M  V30 4 1 11 5
M  V30 5 1 15 12
M  V30 6 1 16 8
M  V30 7 1 16 12
M  V30 8 1 17 3
M  V30 9 1 19 5
M  V30 10 2 20 6
M  V30 11 1 20 7
M  V30 12 1 22 1
M  V30 13 1 24 7
M  V30 14 1 24 9
M  V30 15 1 24 22
M  V30 16 1 25 6
M  V30 17 1 26 11
M  V30 18 1 27 12
M  V30 19 1 28 10
M  V30 20 1 28 13
M  V30 21 1 28 19
M  V30 22 1 28 21 CFG=3
M  V30 23 1 29 3
M  V30 24 2 29 25
M  V30 25 1 29 27
M  V30 26 1 30 17
M  V30 27 2 30 27
M  V30 28 1 32 2
M  V30 29 1 32 15
M  V30 30 1 33 10
M  V30 31 1 33 11
M  V30 32 1 34 1
M  V30 33 1 34 13
M  V30 34 1 34 14
M  V30 35 1 35 17
M  V30 36 1 35 22
M  V30 37 1 35 23
M  V30 38 1 35 31 CFG=3
M  V30 39 1 36 25
M  V30 40 1 37 10
M  V30 41 1 37 33
M  V30 42 1 38 13
M  V30 43 1 38 18
M  V30 44 1 39 14
M  V30 45 1 39 23
M  V30 46 1 40 1
M  V30 47 1 41 1
M  V30 48 1 42 2
M  V30 49 1 43 16
M  V30 50 1 44 2
M  V30 51 1 45 5
M  V30 52 1 46 6
M  V30 53 1 47 9
M  V30 54 1 48 9
M  V30 55 1 49 9
M  V30 56 1 10 50 CFG=1
M  V30 57 1 11 51 CFG=1
M  V30 58 1 12 52 CFG=3
M  V30 59 1 13 53 CFG=3
M  V30 60 1 54 15
M  V30 61 1 55 15
M  V30 62 1 56 16
M  V30 63 1 57 18
M  V30 64 1 58 19
M  V30 65 1 59 19
M  V30 66 1 60 20
M  V30 67 1 61 21
M  V30 68 1 22 62 CFG=3
M  V30 69 1 63 23
M  V30 70 1 64 23
M  V30 71 1 24 65 CFG=1
M  V30 72 1 66 26
M  V30 73 1 67 31
M  V30 74 1 68 31
M  V30 75 1 69 31
M  V30 76 1 70 32
M  V30 77 1 71 32
M  V30 78 1 33 72 CFG=1
M  V30 79 1 34 73 CFG=1
M  V30 80 1 74 36
M  V30 81 1 75 36
M  V30 82 1 76 36
M  V30 83 1 77 38
M  V30 84 1 78 38
M  V30 85 1 79 39
M  V30 86 1 80 39
M  V30 87 1 81 5
M  V30 END BOND
M  V30 END CTAB
M  END
>  <i_epik_Tot_Q>  (1) 
1

>  <i_epik_Tot_abs_Q>  (1) 
1

>  <i_i_glide_confnum>  (1) 
66

>  <i_i_glide_lignum>  (1) 
141

>  <i_i_glide_posenum>  (1) 
93

>  <i_i_glide_rotatable_bonds>  (1) 
7

>  <i_lp_mmshare_version>  (1) 
72125

>  <i_m_source_file_index>  (1) 
81

>  <i_f3d_flags>  (1) 
0

>  <num_sample>  (1) 
100

>  <b_lp_Chiralities_Consistent>  (1) 
1

>  <r_epik_Charging_Adjusted_Penalty>  (1) 
1.2255087210735522

>  <r_epik_Ionization_Penalty>  (1) 
1.2155625160302366

>  <r_epik_Ionization_Penalty_Charging>  (1) 
0.066233371384416553

>  <r_epik_Ionization_Penalty_Neutral>  (1) 
1.14932914464582

>  <r_epik_State_Penalty>  (1) 
1.1592753496891357

>  <r_glide_ring_energy>  (1) 
0.92014261801324104

>  <r_i_docking_score>  (1) 
-3.1611754686418152

>  <r_i_glide_ecoul>  (1) 
-6.9085949334465599

>  <r_i_glide_eff_state_penalty>  (1) 
1.1592753496891357

>  <r_i_glide_einternal>  (1) 
11.297624706035606

>  <r_i_glide_emodel>  (1) 
-30.570714396087055

>  <r_i_glide_emodel_strain>  (1) 
1.4492965115033485

>  <r_i_glide_energy>  (1) 
-6.8266974147078692

>  <r_i_glide_erotb>  (1) 
0.2829020549976658

>  <r_i_glide_esite>  (1) 
-0.086198101604199273

>  <r_i_glide_evdw>  (1) 
0.081897518738690972

>  <r_i_glide_gscore>  (1) 
-4.3204508183309507

>  <r_i_glide_gscore_strain>  (1) 
0

>  <r_i_glide_hbond>  (1) 
-0.11019891439743719

>  <r_i_glide_ligand_efficiency>  (1) 
-0.081055781247226025

>  <r_i_glide_ligand_efficiency_ln>  (1) 
-0.67784575577880868

>  <r_i_glide_ligand_efficiency_sa>  (1) 
-0.27487729288804608

>  <r_i_glide_lipo>  (1) 
-2.2752099856317849

>  <r_i_glide_metal>  (1) 
-0

>  <r_i_glide_rewards>  (1) 
-1.0995515076151454

>  <r_lp_Energy>  (1) 
36.773640999999998

>  <r_lp_tautomer_probability>  (1) 
0.99999997999999979

>  <s_epik_Chemistry_Notes>  (1) 
This compound contains an acetal/aminal-like group ( X-CH(R)-Y where X, Y are N, S, or O) that may be acid/base labile, releasing an aldehyde.

>  <s_epik_cmdline>  (1) 
J2VwaWtfcHl0aG9uJywgJy1waHQnLCAnMS4wJywgJy1waCcsICc3LjQnLCAnLXRuJywgJzgnLCAnLW1hJywgJzUwMCcsICctaW1hZScsICc8aW5maWxlLm1hZT4nLCAnLW9tYWUnLCAnPG91dGZpbGUubWFlPic=

>  <s_epik_input>  (1) 
W0NASF0xMltDQEBIXShPMilbQ0BASF0oW09IXSlbTkhdW0NIMl1bQ0BdMShbT0hdKVtDQEBIXShbQ0gyXVtPSF0pW0NASF0oT1tDSDJdW0NIMl0zKVtDSDJdW0NAQEhdNFtDQEBIXShbQ0gzXSljKGM1bjZbQ0BdMzRbQ0gzXSlbY0hdW2NIXWMoW0NIM10pYzVjKG42KVtDQEhdKFtDSDJdW0NIMl1bQ0gyXTcpW0NIXT1DN1tPSF0=

>  <s_glide_docking_method>  (1) 
confgen

>  <s_i_glide_gridfile>  (1) 
gpcr_drd2_6luq_protein_autoprepared_prepared

>  <s_lp_Force_Field>  (1) 
S-OPLS

>  <s_lp_Variant>  (1) 
DiffSBDD_80-3

>  <s_m_source_file>  (1) 
generated_generic_title2_ligand_DiffSBDD_2026-06-23_prepared.sdf

>  <GenAI_Model>  (1) 
DiffSBDD

>  <Protein>  (1) 
generic_title2

$$$$
DiffSBDD_80
     RDKit          3D

  0  0  0  0  0  0  0  0  0  0999 V3000
M  V30 BEGIN CTAB
M  V30 COUNTS 81 87 0 0 1
M  V30 BEGIN ATOM
M  V30 1 C 6.640802 4.325374 -13.726101 0
M  V30 2 C 10.290302 6.442874 -21.200679 0
M  V30 3 C 8.618904 2.530619 -17.135612 0
M  V30 4 O 11.897483 6.459602 -19.403886 0
M  V30 5 N 10.164633 7.190112 -9.521068 0 CHG=1
M  V30 6 C 9.080716 -0.161764 -17.650529 0
M  V30 7 C 8.253401 1.573083 -16.164351 0
M  V30 8 C 11.260010 5.791187 -20.215508 0
M  V30 9 C 6.708217 1.226014 -14.183980 0
M  V30 10 C 8.148980 5.323838 -8.800127 0 CFG=2
M  V30 11 C 9.458747 7.543771 -8.279576 0 CFG=2
M  V30 12 C 10.051356 3.526133 -20.352593 0 CFG=1
M  V30 13 C 7.272439 5.044758 -11.255222 0 CFG=2
M  V30 14 O 8.662180 5.557854 -13.098289 0
M  V30 15 C 9.098125 4.170079 -21.392914 0
M  V30 16 C 11.408274 4.269420 -20.290619 0
M  V30 17 N 8.490350 3.856378 -17.142903 0
M  V30 18 O 6.306829 7.209733 -11.985035 0
M  V30 19 C 9.247623 6.776122 -10.608174 0
M  V30 20 C 8.482439 0.209931 -16.431138 0
M  V30 21 O 9.375421 4.390242 -10.486723 0
M  V30 22 C 7.093935 3.623179 -15.043904 0 CFG=2
M  V30 23 C 8.773669 5.590242 -15.438040 0
M  V30 24 C 7.684646 2.197187 -14.884118 0 CFG=2
M  V30 25 C 9.448924 0.831809 -18.593158 0
M  V30 26 O 10.544781 7.813235 -7.419241 0
M  V30 27 C 9.411781 3.363200 -18.972382 0
M  V30 28 C 8.470053 5.445993 -10.292723 0 CFG=1
M  V30 29 C 9.176575 2.184287 -18.254133 0
M  V30 30 N 9.009886 4.495855 -18.334514 0
M  V30 31 C 6.720498 5.414771 -16.793521 0
M  V30 32 C 8.942654 5.699970 -21.253304 0
M  V30 33 C 8.653050 6.361579 -7.795000 0 CFG=2
M  V30 34 C 7.743391 4.575155 -12.670042 0 CFG=2
M  V30 35 C 7.803486 4.568234 -16.067700 0 CFG=1
M  V30 36 C 10.102884 0.425802 -19.898714 0
M  V30 37 O 9.317743 5.129142 -7.985032 0
M  V30 38 C 6.051945 5.996688 -11.305130 0
M  V30 39 C 9.500232 5.190204 -14.163294 0
M  V30 40 H 5.849485 3.735476 -13.265895 0
M  V30 41 H 6.163020 5.272847 -13.969687 0
M  V30 42 H 10.136019 7.486272 -20.925688 0
M  V30 43 H 12.011226 3.906839 -19.458986 0
M  V30 44 H 10.756347 6.437634 -22.187257 0
M  V30 45 H 10.759779 6.402547 -9.306472 0
M  V30 46 H 9.266729 -1.204765 -17.862441 0
M  V30 47 H 7.185934 0.275736 -13.944916 0
M  V30 48 H 6.348102 1.613650 -13.233208 0
M  V30 49 H 5.842457 1.009998 -14.810125 0
M  V30 50 H 7.375400 4.616318 -8.525732 0
M  V30 51 H 8.854582 8.443817 -8.385351 0
M  V30 52 H 10.299672 2.593524 -20.817023 0
M  V30 53 H 6.850562 4.140096 -10.813563 0
M  V30 54 H 9.497696 3.975802 -22.388736 0
M  V30 55 H 8.122633 3.683534 -21.365689 0
M  V30 56 H 11.971064 4.061656 -21.201438 0
M  V30 57 H 6.575559 7.828725 -11.314001 0
M  V30 58 H 9.871131 6.689844 -11.494791 0
M  V30 59 H 8.575661 7.609352 -10.791199 0
M  V30 60 H 8.217937 -0.545211 -15.704511 0
M  V30 61 H 9.575527 4.331306 -11.410352 0
M  V30 62 H 6.175407 3.377901 -15.542410 0
M  V30 63 H 8.198646 6.483475 -15.184826 0
M  V30 64 H 9.508732 5.924028 -16.172198 0
M  V30 65 H 8.546904 2.261887 -14.226028 0
M  V30 66 H 10.409075 7.337075 -6.611763 0
M  V30 67 H 6.001585 5.863196 -16.107829 0
M  V30 68 H 7.163323 6.232499 -17.364732 0
M  V30 69 H 6.175389 4.809039 -17.515826 0
M  V30 70 H 8.354700 5.944353 -20.369537 0
M  V30 71 H 8.361086 6.078593 -22.093905 0
M  V30 72 H 8.175419 6.450100 -6.820737 0
M  V30 73 H 8.265641 3.629587 -12.529182 0
M  V30 74 H 10.229663 -0.656219 -19.929618 0
M  V30 75 H 9.475269 0.677481 -20.753948 0
M  V30 76 H 11.104284 0.847713 -19.987865 0
M  V30 77 H 5.681337 6.205855 -10.306546 0
M  V30 78 H 5.214912 5.509495 -11.802752 0
M  V30 79 H 10.425793 5.757673 -14.067225 0
M  V30 80 H 9.774989 4.149417 -14.100521 0
M  V30 81 H 10.722172 7.977246 -9.812507 0
M  V30 END ATOM
M  V30 BEGIN BOND
M  V30 1 2 7 3
M  V30 2 1 8 2
M  V30 3 2 8 4
M  V30 4 1 11 5
M  V30 5 1 15 12
M  V30 6 1 16 8
M  V30 7 1 16 12
M  V30 8 1 17 3
M  V30 9 1 19 5
M  V30 10 2 20 6
M  V30 11 1 20 7
M  V30 12 1 22 1
M  V30 13 1 24 7
M  V30 14 1 24 9
M  V30 15 1 24 22
M  V30 16 1 25 6
M  V30 17 1 26 11
M  V30 18 1 27 12
M  V30 19 1 28 10
M  V30 20 1 28 13
M  V30 21 1 28 19
M  V30 22 1 28 21 CFG=3
M  V30 23 1 29 3
M  V30 24 2 29 25
M  V30 25 1 29 27
M  V30 26 1 30 17
M  V30 27 2 30 27
M  V30 28 1 32 2
M  V30 29 1 32 15
M  V30 30 1 33 10
M  V30 31 1 33 11
M  V30 32 1 34 1
M  V30 33 1 34 13
M  V30 34 1 34 14
M  V30 35 1 35 17
M  V30 36 1 35 22
M  V30 37 1 35 23
M  V30 38 1 35 31 CFG=3
M  V30 39 1 36 25
M  V30 40 1 37 10
M  V30 41 1 37 33
M  V30 42 1 38 13
M  V30 43 1 38 18
M  V30 44 1 39 14
M  V30 45 1 39 23
M  V30 46 1 40 1
M  V30 47 1 41 1
M  V30 48 1 42 2
M  V30 49 1 43 16
M  V30 50 1 44 2
M  V30 51 1 45 5
M  V30 52 1 46 6
M  V30 53 1 47 9
M  V30 54 1 48 9
M  V30 55 1 49 9
M  V30 56 1 10 50 CFG=3
M  V30 57 1 11 51 CFG=3
M  V30 58 1 12 52 CFG=3
M  V30 59 1 13 53 CFG=1
M  V30 60 1 54 15
M  V30 61 1 55 15
M  V30 62 1 56 16
M  V30 63 1 57 18
M  V30 64 1 58 19
M  V30 65 1 59 19
M  V30 66 1 60 20
M  V30 67 1 61 21
M  V30 68 1 22 62 CFG=3
M  V30 69 1 63 23
M  V30 70 1 64 23
M  V30 71 1 24 65 CFG=1
M  V30 72 1 66 26
M  V30 73 1 67 31
M  V30 74 1 68 31
M  V30 75 1 69 31
M  V30 76 1 70 32
M  V30 77 1 71 32
M  V30 78 1 33 72 CFG=1
M  V30 79 1 34 73 CFG=1
M  V30 80 1 74 36
M  V30 81 1 75 36
M  V30 82 1 76 36
M  V30 83 1 77 38
M  V30 84 1 78 38
M  V30 85 1 79 39
M  V30 86 1 80 39
M  V30 87 1 81 5
M  V30 END BOND
M  V30 END CTAB
M  END
>  <i_epik_Tot_Q>  (1) 
1

>  <i_epik_Tot_abs_Q>  (1) 
1

>  <i_i_glide_confnum>  (1) 
175

>  <i_i_glide_lignum>  (1) 
142

>  <i_i_glide_posenum>  (1) 
158

>  <i_i_glide_rotatable_bonds>  (1) 
7

>  <i_lp_mmshare_version>  (1) 
72125

>  <i_m_source_file_index>  (1) 
81

>  <i_f3d_flags>  (1) 
0

>  <num_sample>  (1) 
100

>  <b_lp_Chiralities_Consistent>  (1) 
1

>  <r_epik_Charging_Adjusted_Penalty>  (1) 
1.2255087210735522

>  <r_epik_Ionization_Penalty>  (1) 
1.2155625160302366

>  <r_epik_Ionization_Penalty_Charging>  (1) 
0.066233371384416553

>  <r_epik_Ionization_Penalty_Neutral>  (1) 
1.14932914464582

>  <r_epik_State_Penalty>  (1) 
1.1592753496891357

>  <r_glide_ring_energy>  (1) 
1.9914992284172288

>  <r_i_docking_score>  (1) 
-3.1584436154139794

>  <r_i_glide_ecoul>  (1) 
-8.5617454968085731

>  <r_i_glide_eff_state_penalty>  (1) 
1.1592753496891357

>  <r_i_glide_einternal>  (1) 
7.8449329790097071

>  <r_i_glide_emodel>  (1) 
-32.941805322120359

>  <r_i_glide_emodel_strain>  (1) 
3.1305555073408016

>  <r_i_glide_energy>  (1) 
-34.346898149228849

>  <r_i_glide_erotb>  (1) 
0.2829020549976658

>  <r_i_glide_esite>  (1) 
-0.16533282473706168

>  <r_i_glide_evdw>  (1) 
-25.785152652420273

>  <r_i_glide_gscore>  (1) 
-4.3177189651031149

>  <r_i_glide_gscore_strain>  (1) 
0

>  <r_i_glide_hbond>  (1) 
-0.1261608297760923

>  <r_i_glide_ligand_efficiency>  (1) 
-0.080985733728563575

>  <r_i_glide_ligand_efficiency_ln>  (1) 
-0.67725996889849527

>  <r_i_glide_ligand_efficiency_sa>  (1) 
-0.27463974694120319

>  <r_i_glide_lipo>  (1) 
-1.2511463339362647

>  <r_i_glide_metal>  (1) 
-0

>  <r_i_glide_rewards>  (1) 
-0.48446157450906274

>  <r_lp_Energy>  (1) 
35.636825000000002

>  <r_lp_tautomer_probability>  (1) 
0.99999997999999979

>  <s_epik_Chemistry_Notes>  (1) 
This compound contains an acetal/aminal-like group ( X-CH(R)-Y where X, Y are N, S, or O) that may be acid/base labile, releasing an aldehyde.

>  <s_epik_cmdline>  (1) 
J2VwaWtfcHl0aG9uJywgJy1waHQnLCAnMS4wJywgJy1waCcsICc3LjQnLCAnLXRuJywgJzgnLCAnLW1hJywgJzUwMCcsICctaW1hZScsICc8aW5maWxlLm1hZT4nLCAnLW9tYWUnLCAnPG91dGZpbGUubWFlPic=

>  <s_epik_input>  (1) 
W0NASF0xMltDQEBIXShPMilbQ0BASF0oW09IXSlbTkhdW0NIMl1bQ0BdMShbT0hdKVtDQEBIXShbQ0gyXVtPSF0pW0NASF0oT1tDSDJdW0NIMl0zKVtDSDJdW0NAQEhdNFtDQEBIXShbQ0gzXSljKGM1bjZbQ0BdMzRbQ0gzXSlbY0hdW2NIXWMoW0NIM10pYzVjKG42KVtDQEhdKFtDSDJdW0NIMl1bQ0gyXTcpW0NIXT1DN1tPSF0=

>  <s_glide_docking_method>  (1) 
confgen

>  <s_i_glide_gridfile>  (1) 
gpcr_drd2_6luq_protein_autoprepared_prepared

>  <s_lp_Force_Field>  (1) 
S-OPLS

>  <s_lp_Variant>  (1) 
DiffSBDD_80-4

>  <s_m_source_file>  (1) 
generated_generic_title2_ligand_DiffSBDD_2026-06-23_prepared.sdf

>  <GenAI_Model>  (1) 
DiffSBDD

>  <Protein>  (1) 
generic_title2

$$$$
DiffSBDD_94
     RDKit          3D

  0  0  0  0  0  0  0  0  0  0999 V3000
M  V30 BEGIN CTAB
M  V30 COUNTS 66 70 0 0 1
M  V30 BEGIN ATOM
M  V30 1 C 8.474174 3.725997 -18.952636 0
M  V30 2 C 5.889351 5.379599 -14.864748 0
M  V30 3 O 10.175442 6.623411 -8.363312 0
M  V30 4 C 7.946997 4.858895 -18.061167 0
M  V30 5 C 9.964866 6.419911 -9.744451 0 CFG=1
M  V30 6 N 13.090743 6.441318 -19.264444 0
M  V30 7 C 13.230236 7.353671 -18.267081 0
M  V30 8 C 9.288723 2.711855 -18.155402 0 CFG=2
M  V30 9 C 13.122733 4.730238 -17.670980 0
M  V30 10 C 9.527027 7.688332 -10.454117 0 CFG=1
M  V30 11 Cl 7.116776 1.144792 -17.631520 0
M  V30 12 C 10.944429 7.190225 -10.605142 0
M  V30 13 C 13.046249 3.230030 -17.416358 0 CFG=2
M  V30 14 C 7.815120 6.215112 -14.843124 0
M  V30 15 C 6.937137 5.645120 -15.955219 0 CFG=1
M  V30 16 C 8.420966 2.188290 -17.001614 0 CFG=2
M  V30 17 C 7.670977 6.355400 -11.585040 0 CFG=1
M  V30 18 C 14.332193 2.515742 -17.859009 0
M  V30 19 C 13.320117 6.992737 -16.914302 0
M  V30 20 O 7.504412 3.017016 -14.949608 0
M  V30 21 N 13.042999 5.127000 -18.967976 0
M  V30 22 N 6.938626 5.566224 -13.876195 0 CFG=1 CHG=1
M  V30 23 C 8.548970 7.628088 -11.621023 0
M  V30 24 N 7.549212 4.501404 -16.684429 0
M  V30 25 F 9.375414 8.802853 -9.654390 0
M  V30 26 C 6.569286 6.314004 -12.663842 0
M  V30 27 C 13.263620 5.633545 -16.604002 0
M  V30 28 C 9.356752 5.062898 -10.076263 0
M  V30 29 O 8.558262 4.176409 -12.167189 0
M  V30 30 C 7.782973 3.275554 -16.118278 0
M  V30 31 C 11.785938 2.589056 -18.036864 0
M  V30 32 C 8.533361 5.103063 -11.358628 0
M  V30 33 N 10.552591 3.317191 -17.664484 0 CHG=1
M  V30 34 H 9.059773 4.134563 -19.777800 0
M  V30 35 H 7.626781 3.222357 -19.419906 0
M  V30 36 H 5.451854 4.390238 -14.785025 0
M  V30 37 H 5.125301 6.157223 -14.821256 0
M  V30 38 H 9.418826 7.082673 -8.023122 0
M  V30 39 H 7.108191 5.336536 -18.570224 0
M  V30 40 H 8.719321 5.625537 -17.979887 0
M  V30 41 H 13.268498 8.390300 -18.563220 0
M  V30 42 H 9.531422 1.878209 -18.817046 0
M  V30 43 H 11.728893 7.755178 -10.104900 0
M  V30 44 H 11.218241 6.785692 -11.577217 0
M  V30 45 H 12.975160 3.094202 -16.340138 0
M  V30 46 H 7.775402 7.303978 -14.784993 0
M  V30 47 H 8.837056 5.836103 -14.812833 0
M  V30 48 H 6.592015 6.439077 -16.620481 0
M  V30 49 H 9.021811 1.541298 -16.361838 0
M  V30 50 H 7.096441 6.390225 -10.673325 0
M  V30 51 H 15.202852 2.929168 -17.349192 0
M  V30 52 H 14.290998 1.450873 -17.627233 0
M  V30 53 H 14.495674 2.617661 -18.932553 0
M  V30 54 H 13.428649 7.740058 -16.142312 0
M  V30 55 H 9.103881 7.687763 -12.556920 0
M  V30 56 H 7.913732 8.514007 -11.585047 0
M  V30 57 H 5.699176 5.815453 -12.233771 0
M  V30 58 H 6.236148 7.321015 -12.919123 0
M  V30 59 H 13.325970 5.290358 -15.581489 0
M  V30 60 H 10.132707 4.304200 -10.145462 0
M  V30 61 H 8.689028 4.770549 -9.265547 0
M  V30 62 H 11.707794 1.550196 -17.712077 0
M  V30 63 H 11.867778 2.577462 -19.125119 0
M  V30 64 H 10.628656 4.244508 -18.061295 0
M  V30 65 H 10.516751 3.404694 -16.658989 0
M  V30 66 H 7.327266 4.658628 -13.631697 0
M  V30 END ATOM
M  V30 BEGIN BOND
M  V30 1 1 4 1
M  V30 2 1 5 3 CFG=1
M  V30 3 1 7 6
M  V30 4 1 8 1
M  V30 5 1 10 5
M  V30 6 1 12 5
M  V30 7 1 12 10
M  V30 8 1 13 9
M  V30 9 1 15 2
M  V30 10 1 15 14
M  V30 11 1 16 8
M  V30 12 1 16 11
M  V30 13 1 18 13
M  V30 14 2 19 7
M  V30 15 2 21 6
M  V30 16 1 21 9
M  V30 17 1 22 2
M  V30 18 1 22 14
M  V30 19 1 23 10
M  V30 20 1 23 17
M  V30 21 1 24 4
M  V30 22 1 24 15
M  V30 23 1 10 25 CFG=1
M  V30 24 1 26 17
M  V30 25 1 26 22
M  V30 26 2 27 9
M  V30 27 1 27 19
M  V30 28 1 28 5
M  V30 29 1 30 16
M  V30 30 2 30 20
M  V30 31 1 30 24
M  V30 32 1 31 13
M  V30 33 1 32 17
M  V30 34 1 32 28
M  V30 35 2 32 29
M  V30 36 1 33 8
M  V30 37 1 33 31
M  V30 38 1 34 1
M  V30 39 1 35 1
M  V30 40 1 36 2
M  V30 41 1 37 2
M  V30 42 1 38 3
M  V30 43 1 39 4
M  V30 44 1 40 4
M  V30 45 1 41 7
M  V30 46 1 8 42 CFG=3
M  V30 47 1 43 12
M  V30 48 1 44 12
M  V30 49 1 13 45 CFG=1
M  V30 50 1 46 14
M  V30 51 1 47 14
M  V30 52 1 15 48 CFG=3
M  V30 53 1 16 49 CFG=1
M  V30 54 1 17 50 CFG=1
M  V30 55 1 51 18
M  V30 56 1 52 18
M  V30 57 1 53 18
M  V30 58 1 54 19
M  V30 59 1 55 23
M  V30 60 1 56 23
M  V30 61 1 57 26
M  V30 62 1 58 26
M  V30 63 1 59 27
M  V30 64 1 60 28
M  V30 65 1 61 28
M  V30 66 1 62 31
M  V30 67 1 63 31
M  V30 68 1 64 33
M  V30 69 1 65 33
M  V30 70 1 22 66 CFG=1
M  V30 END BOND
M  V30 END CTAB
M  END
>  <i_epik_Tot_Q>  (1) 
2

>  <i_epik_Tot_abs_Q>  (1) 
2

>  <i_i_glide_confnum>  (1) 
456

>  <i_i_glide_lignum>  (1) 
178

>  <i_i_glide_posenum>  (1) 
216

>  <i_i_glide_rotatable_bonds>  (1) 
8

>  <i_lp_mmshare_version>  (1) 
72125

>  <i_m_source_file_index>  (1) 
95

>  <i_f3d_flags>  (1) 
0

>  <num_sample>  (1) 
100

>  <b_lp_Chiralities_Consistent>  (1) 
1

>  <r_epik_Charging_Adjusted_Penalty>  (1) 
0.95188217531897845

>  <r_epik_Ionization_Penalty>  (1) 
0.49022780398244736

>  <r_epik_Ionization_Penalty_Charging>  (1) 
0.49020808109847258

>  <r_epik_Ionization_Penalty_Neutral>  (1) 
1.9722883974789891e-05

>  <r_epik_State_Penalty>  (1) 
0.46167409422050587

>  <r_glide_ring_energy>  (1) 
1.3165782718525243

>  <r_i_docking_score>  (1) 
-3.157233199043473

>  <r_i_glide_ecoul>  (1) 
-5.0537442889021387

>  <r_i_glide_eff_state_penalty>  (1) 
0.46167409422050587

>  <r_i_glide_einternal>  (1) 
9.3556688988562264

>  <r_i_glide_emodel>  (1) 
-37.130501435340072

>  <r_i_glide_emodel_strain>  (1) 
0.371759475690709

>  <r_i_glide_energy>  (1) 
-34.071243776699156

>  <r_i_glide_erotb>  (1) 
0.52401424714319955

>  <r_i_glide_esite>  (1) 
-0.10000000000000001

>  <r_i_glide_evdw>  (1) 
-29.017499487797014

>  <r_i_glide_gscore>  (1) 
-3.618907293263979

>  <r_i_glide_gscore_strain>  (1) 
0

>  <r_i_glide_hbond>  (1) 
0

>  <r_i_glide_ligand_efficiency>  (1) 
-0.095673733304347669

>  <r_i_glide_ligand_efficiency_ln>  (1) 
-0.70215231618865126

>  <r_i_glide_ligand_efficiency_sa>  (1) 
-0.30687678405256019

>  <r_i_glide_lipo>  (1) 
-1.0169213934347312

>  <r_i_glide_metal>  (1) 
-0

>  <r_i_glide_rewards>  (1) 
-0.81706352924727554

>  <r_lp_Energy>  (1) 
61.542628999999998

>  <r_lp_tautomer_probability>  (1) 
0.99999998000000001

>  <s_epik_cmdline>  (1) 
J2VwaWtfcHl0aG9uJywgJy1waHQnLCAnMS4wJywgJy1waCcsICc3LjQnLCAnLXRuJywgJzgnLCAnLW1hJywgJzUwMCcsICctaW1hZScsICc8aW5maWxlLm1hZT4nLCAnLW9tYWUnLCAnPG91dGZpbGUubWFlPic=

>  <s_epik_input>  (1) 
W2NIXTFbY0hdW2NIXW5uYzFbQ0BIXShbQ0gzXSlbQ0gyXVtOSF1bQ0BASF0yW0NIMl1bQ0gyXU4oQyg9TylbQ0BIXTJDbClbQ0hdM1tDSDJdTihbQ0gyXTMpW0NIMl1bQ0BASF0oQyg9TylbQ0gyXTQpW0NIMl1bQ0BdKEYpKFtDSDJdNSlbQ0BAXTQ1W09IXQ==

>  <s_glide_docking_method>  (1) 
confgen

>  <s_i_glide_gridfile>  (1) 
gpcr_drd2_6luq_protein_autoprepared_prepared

>  <s_lp_Force_Field>  (1) 
S-OPLS

>  <s_lp_Variant>  (1) 
DiffSBDD_94-1

>  <s_m_source_file>  (1) 
generated_generic_title2_ligand_DiffSBDD_2026-06-23_prepared.sdf

>  <GenAI_Model>  (1) 
DiffSBDD

>  <Protein>  (1) 
generic_title2

$$$$
DiffSBDD_80
     RDKit          3D

  0  0  0  0  0  0  0  0  0  0999 V3000
M  V30 BEGIN CTAB
M  V30 COUNTS 81 87 0 0 1
M  V30 BEGIN ATOM
M  V30 1 C 9.542920 6.307337 -11.652254 0
M  V30 2 C 9.480555 2.291997 -19.296935 0
M  V30 3 C 7.188335 5.975482 -15.264834 0
M  V30 4 O 10.863145 4.259451 -19.159372 0
M  V30 5 N 11.651021 8.423430 -7.022076 0 CHG=1
M  V30 6 C 4.975397 7.454871 -16.032222 0
M  V30 7 C 6.605917 6.860613 -14.336075 0
M  V30 8 C 9.732517 3.799641 -19.284292 0
M  V30 9 C 7.261681 8.208784 -12.232273 0
M  V30 10 C 11.480380 7.716060 -9.721257 0 CFG=2
M  V30 11 C 12.909078 8.190035 -7.733922 0 CFG=2
M  V30 12 C 7.340410 4.308287 -18.518906 0 CFG=2
M  V30 13 C 9.708300 5.833809 -9.144798 0 CFG=2
M  V30 14 O 8.961349 4.184302 -10.800382 0
M  V30 15 C 7.071600 2.777656 -18.560065 0
M  V30 16 C 8.511324 4.708649 -19.444710 0
M  V30 17 N 8.255602 5.199562 -15.163023 0
M  V30 18 O 7.775418 5.190076 -7.815758 0
M  V30 19 C 10.719179 7.330045 -7.294550 0
M  V30 20 C 5.471358 7.590235 -14.724211 0
M  V30 21 O 9.375414 8.303504 -8.938905 0
M  V30 22 C 8.784737 6.397471 -12.977734 0 CFG=2
M  V30 23 C 9.162480 3.933461 -13.252892 0
M  V30 24 C 7.312010 6.851655 -12.957549 0 CFG=2
M  V30 25 C 5.584895 6.557573 -16.933299 0
M  V30 26 O 13.683279 9.190227 -7.184863 0
M  V30 27 C 7.492563 4.867350 -17.101792 0
M  V30 28 C 10.311304 7.262108 -8.794655 0 CFG=1
M  V30 29 C 6.700313 5.820233 -16.457718 0
M  V30 30 N 8.521581 4.395628 -16.346519 0
M  V30 31 C 10.528741 5.564484 -14.700270 0
M  V30 32 C 8.326935 1.902360 -18.356697 0
M  V30 33 C 12.752613 8.311747 -9.197159 0 CFG=2
M  V30 34 C 8.917096 5.575668 -10.482789 0 CFG=2
M  V30 35 C 9.146263 5.281150 -14.006288 0 CFG=1
M  V30 36 C 5.050491 6.437157 -18.348431 0
M  V30 37 O 11.724748 9.142651 -9.680898 0
M  V30 38 C 9.127273 5.033658 -7.981003 0
M  V30 39 C 8.304525 3.751356 -12.000370 0
M  V30 40 H 9.678876 7.333612 -11.328537 0
M  V30 41 H 10.533279 5.897555 -11.851804 0
M  V30 42 H 9.242512 1.992577 -20.318480 0
M  V30 43 H 8.187031 4.616588 -20.482195 0
M  V30 44 H 10.391480 1.764827 -19.011575 0
M  V30 45 H 11.239569 9.287209 -7.346716 0
M  V30 46 H 4.116004 8.030728 -16.342975 0
M  V30 47 H 6.235566 8.480200 -11.984810 0
M  V30 48 H 7.775773 8.201115 -11.281193 0
M  V30 49 H 7.775407 8.979926 -12.813432 0
M  V30 50 H 11.638960 7.240982 -10.677875 0
M  V30 51 H 13.334270 7.205311 -7.585021 0
M  V30 52 H 6.469810 4.679561 -19.019474 0
M  V30 53 H 10.575383 5.228567 -9.212293 0
M  V30 54 H 6.297612 2.499585 -17.845909 0
M  V30 55 H 6.664204 2.533530 -19.543258 0
M  V30 56 H 8.787712 5.753048 -19.288715 0
M  V30 57 H 7.532756 6.106274 -7.686235 0
M  V30 58 H 9.848116 7.436218 -6.646549 0
M  V30 59 H 11.249139 6.425127 -6.987076 0
M  V30 60 H 4.975403 8.252096 -14.029558 0
M  V30 61 H 8.482193 7.990571 -9.155435 0
M  V30 62 H 9.284249 7.320597 -13.185014 0
M  V30 63 H 10.174660 3.669741 -12.958079 0
M  V30 64 H 8.820103 3.167168 -13.939520 0
M  V30 65 H 6.729110 6.155357 -12.359666 0
M  V30 66 H 14.176564 9.590480 -7.892179 0
M  V30 67 H 11.267214 5.990467 -14.024488 0
M  V30 68 H 10.924195 4.666978 -15.185034 0
M  V30 69 H 10.489377 6.197502 -15.585073 0
M  V30 70 H 8.059788 0.860381 -18.531906 0
M  V30 71 H 8.661440 1.945371 -17.320211 0
M  V30 72 H 13.647036 8.284398 -9.817005 0
M  V30 73 H 7.883410 5.894961 -10.355665 0
M  V30 74 H 4.273887 7.183994 -18.506490 0
M  V30 75 H 5.825180 6.669417 -19.080462 0
M  V30 76 H 4.575471 5.485087 -18.555076 0
M  V30 77 H 9.578960 5.190514 -7.010101 0
M  V30 78 H 9.280464 3.990406 -8.207704 0
M  V30 79 H 8.206665 2.672938 -11.985040 0
M  V30 80 H 7.282295 4.110025 -12.084459 0
M  V30 81 H 11.836546 8.479063 -6.032358 0
M  V30 END ATOM
M  V30 BEGIN BOND
M  V30 1 2 7 3
M  V30 2 1 8 2
M  V30 3 2 8 4
M  V30 4 1 11 5
M  V30 5 1 15 12
M  V30 6 1 16 8
M  V30 7 1 16 12
M  V30 8 1 17 3
M  V30 9 1 19 5
M  V30 10 2 20 6
M  V30 11 1 20 7
M  V30 12 1 22 1
M  V30 13 1 24 7
M  V30 14 1 24 9
M  V30 15 1 24 22
M  V30 16 1 25 6
M  V30 17 1 26 11
M  V30 18 1 27 12
M  V30 19 1 28 10
M  V30 20 1 28 13
M  V30 21 1 28 19
M  V30 22 1 28 21 CFG=1
M  V30 23 1 29 3
M  V30 24 2 29 25
M  V30 25 1 29 27
M  V30 26 1 30 17
M  V30 27 2 30 27
M  V30 28 1 32 2
M  V30 29 1 32 15
M  V30 30 1 33 10
M  V30 31 1 33 11
M  V30 32 1 34 1
M  V30 33 1 34 13
M  V30 34 1 34 14
M  V30 35 1 35 17
M  V30 36 1 35 22
M  V30 37 1 35 23
M  V30 38 1 35 31 CFG=3
M  V30 39 1 36 25
M  V30 40 1 37 10
M  V30 41 1 37 33
M  V30 42 1 38 13
M  V30 43 1 38 18
M  V30 44 1 39 14
M  V30 45 1 39 23
M  V30 46 1 40 1
M  V30 47 1 41 1
M  V30 48 1 42 2
M  V30 49 1 43 16
M  V30 50 1 44 2
M  V30 51 1 45 5
M  V30 52 1 46 6
M  V30 53 1 47 9
M  V30 54 1 48 9
M  V30 55 1 49 9
M  V30 56 1 10 50 CFG=3
M  V30 57 1 11 51 CFG=3
M  V30 58 1 12 52 CFG=3
M  V30 59 1 13 53 CFG=3
M  V30 60 1 54 15
M  V30 61 1 55 15
M  V30 62 1 56 16
M  V30 63 1 57 18
M  V30 64 1 58 19
M  V30 65 1 59 19
M  V30 66 1 60 20
M  V30 67 1 61 21
M  V30 68 1 22 62 CFG=3
M  V30 69 1 63 23
M  V30 70 1 64 23
M  V30 71 1 24 65 CFG=1
M  V30 72 1 66 26
M  V30 73 1 67 31
M  V30 74 1 68 31
M  V30 75 1 69 31
M  V30 76 1 70 32
M  V30 77 1 71 32
M  V30 78 1 33 72 CFG=3
M  V30 79 1 34 73 CFG=1
M  V30 80 1 74 36
M  V30 81 1 75 36
M  V30 82 1 76 36
M  V30 83 1 77 38
M  V30 84 1 78 38
M  V30 85 1 79 39
M  V30 86 1 80 39
M  V30 87 1 81 5
M  V30 END BOND
M  V30 END CTAB
M  END
>  <i_epik_Tot_Q>  (1) 
1

>  <i_epik_Tot_abs_Q>  (1) 
1

>  <i_i_glide_confnum>  (1) 
166

>  <i_i_glide_lignum>  (1) 
141

>  <i_i_glide_posenum>  (1) 
64

>  <i_i_glide_rotatable_bonds>  (1) 
7

>  <i_lp_mmshare_version>  (1) 
72125

>  <i_m_source_file_index>  (1) 
81

>  <i_f3d_flags>  (1) 
0

>  <num_sample>  (1) 
100

>  <b_lp_Chiralities_Consistent>  (1) 
1

>  <r_epik_Charging_Adjusted_Penalty>  (1) 
1.2255087210735522

>  <r_epik_Ionization_Penalty>  (1) 
1.2155625160302366

>  <r_epik_Ionization_Penalty_Charging>  (1) 
0.066233371384416553

>  <r_epik_Ionization_Penalty_Neutral>  (1) 
1.14932914464582

>  <r_epik_State_Penalty>  (1) 
1.1592753496891357

>  <r_glide_ring_energy>  (1) 
1.9915826310345868

>  <r_i_docking_score>  (1) 
-3.1491279665333778

>  <r_i_glide_ecoul>  (1) 
-9.3499964605852899

>  <r_i_glide_eff_state_penalty>  (1) 
1.1592753496891357

>  <r_i_glide_einternal>  (1) 
13.136476977522664

>  <r_i_glide_emodel>  (1) 
-20.90397699962368

>  <r_i_glide_emodel_strain>  (1) 
4.6378289601910012

>  <r_i_glide_energy>  (1) 
-1.3539213352101234

>  <r_i_glide_erotb>  (1) 
0.2829020549976658

>  <r_i_glide_esite>  (1) 
0

>  <r_i_glide_evdw>  (1) 
7.9960751253751665

>  <r_i_glide_gscore>  (1) 
-4.3084033162225133

>  <r_i_glide_gscore_strain>  (1) 
0.1594572400477503

>  <r_i_glide_hbond>  (1) 
-0.3832792760891785

>  <r_i_glide_ligand_efficiency>  (1) 
-0.080746870936753271

>  <r_i_glide_ligand_efficiency_ln>  (1) 
-0.67526242933807512

>  <r_i_glide_ligand_efficiency_sa>  (1) 
-0.27382971270830581

>  <r_i_glide_lipo>  (1) 
-2.2274799166201102

>  <r_i_glide_metal>  (1) 
-0

>  <r_i_glide_rewards>  (1) 
-1.1373077057396055

>  <r_lp_Energy>  (1) 
36.773640999999998

>  <r_lp_tautomer_probability>  (1) 
0.99999997999999979

>  <s_epik_Chemistry_Notes>  (1) 
This compound contains an acetal/aminal-like group ( X-CH(R)-Y where X, Y are N, S, or O) that may be acid/base labile, releasing an aldehyde.

>  <s_epik_cmdline>  (1) 
J2VwaWtfcHl0aG9uJywgJy1waHQnLCAnMS4wJywgJy1waCcsICc3LjQnLCAnLXRuJywgJzgnLCAnLW1hJywgJzUwMCcsICctaW1hZScsICc8aW5maWxlLm1hZT4nLCAnLW9tYWUnLCAnPG91dGZpbGUubWFlPic=

>  <s_epik_input>  (1) 
W0NASF0xMltDQEBIXShPMilbQ0BASF0oW09IXSlbTkhdW0NIMl1bQ0BdMShbT0hdKVtDQEBIXShbQ0gyXVtPSF0pW0NASF0oT1tDSDJdW0NIMl0zKVtDSDJdW0NAQEhdNFtDQEBIXShbQ0gzXSljKGM1bjZbQ0BdMzRbQ0gzXSlbY0hdW2NIXWMoW0NIM10pYzVjKG42KVtDQEhdKFtDSDJdW0NIMl1bQ0gyXTcpW0NIXT1DN1tPSF0=

>  <s_glide_docking_method>  (1) 
confgen

>  <s_i_glide_gridfile>  (1) 
gpcr_drd2_6luq_protein_autoprepared_prepared

>  <s_lp_Force_Field>  (1) 
S-OPLS

>  <s_lp_Variant>  (1) 
DiffSBDD_80-3

>  <s_m_source_file>  (1) 
generated_generic_title2_ligand_DiffSBDD_2026-06-23_prepared.sdf

>  <GenAI_Model>  (1) 
DiffSBDD

>  <Protein>  (1) 
generic_title2

$$$$
DiffSBDD_88
     RDKit          3D

  0  0  0  0  0  0  0  0  0  0999 V3000
M  V30 BEGIN CTAB
M  V30 COUNTS 36 37 0 0 1
M  V30 BEGIN ATOM
M  V30 1 C 6.130072 1.050609 -18.816311 0 CFG=1
M  V30 2 F 7.252400 -0.816435 -19.792996 0
M  V30 3 C 7.954393 2.254854 -13.185026 0
M  V30 4 C 7.749106 3.724158 -12.801541 0
M  V30 5 O 7.775410 -0.009773 -14.785019 0
M  V30 6 O 7.280727 5.724311 -14.117541 0
M  V30 7 O 7.041394 1.827331 -19.356701 0 CHG=-1
M  V30 8 C 8.008047 4.513741 -14.092209 0 CFG=2
M  V30 9 C 5.513658 -0.419290 -16.739555 0
M  V30 10 N 7.717024 2.245415 -14.619823 0
M  V30 11 C 6.044932 -0.253574 -19.664340 0 CFG=1
M  V30 12 F 6.557488 -2.359561 -17.585024 0
M  V30 13 C 5.408240 -1.683534 -17.626306 0 CFG=2
M  V30 14 C 7.631663 1.087249 -15.324226 0
M  V30 15 C 4.975410 -2.560836 -19.985369 0
M  V30 16 N 7.365868 1.294878 -16.672104 0
M  V30 17 C 6.433979 0.694337 -17.336407 0
M  V30 18 C 7.602941 3.569586 -15.231159 0
M  V30 19 C 5.062228 -1.314374 -19.089004 0 CFG=2
M  V30 20 H 5.101500 1.412263 -18.784430 0
M  V30 21 H 7.266355 1.597624 -12.651203 0
M  V30 22 H 8.975410 1.933156 -12.974449 0
M  V30 23 H 8.393738 4.038164 -11.979780 0
M  V30 24 H 6.716057 3.861680 -12.478506 0
M  V30 25 H 6.362975 5.524836 -14.017342 0
M  V30 26 H 9.074480 4.732681 -14.169528 0
M  V30 27 H 5.778009 -0.743624 -15.739385 0
M  V30 28 H 4.511279 -0.009772 -16.621637 0
M  V30 29 H 5.736498 0.004424 -20.678778 0
M  V30 30 H 4.655840 -2.358346 -17.215373 0
M  V30 31 H 5.934470 -3.075432 -20.049895 0
M  V30 32 H 4.242616 -3.269955 -19.599594 0
M  V30 33 H 4.673412 -2.292067 -20.998133 0
M  V30 34 H 6.575410 3.737446 -15.547443 0
M  V30 35 H 8.256775 3.699539 -16.095744 0
M  V30 36 H 4.059791 -0.879091 -19.082664 0
M  V30 END ATOM
M  V30 BEGIN BOND
M  V30 1 1 4 3
M  V30 2 1 7 1
M  V30 3 1 8 4
M  V30 4 1 8 6
M  V30 5 1 10 3
M  V30 6 1 11 1
M  V30 7 1 11 2
M  V30 8 1 13 9
M  V30 9 1 13 12
M  V30 10 2 14 5
M  V30 11 1 14 10
M  V30 12 1 16 14
M  V30 13 1 17 1
M  V30 14 1 17 9
M  V30 15 2 17 16
M  V30 16 1 18 8
M  V30 17 1 18 10
M  V30 18 1 19 11
M  V30 19 1 19 13
M  V30 20 1 19 15
M  V30 21 1 1 20 CFG=1
M  V30 22 1 21 3
M  V30 23 1 22 3
M  V30 24 1 23 4
M  V30 25 1 24 4
M  V30 26 1 25 6
M  V30 27 1 8 26 CFG=3
M  V30 28 1 27 9
M  V30 29 1 28 9
M  V30 30 1 11 29 CFG=3
M  V30 31 1 13 30 CFG=1
M  V30 32 1 31 15
M  V30 33 1 32 15
M  V30 34 1 33 15
M  V30 35 1 34 18
M  V30 36 1 35 18
M  V30 37 1 19 36 CFG=1
M  V30 END BOND
M  V30 END CTAB
M  END
>  <i_epik_Tot_Q>  (1) 
-1

>  <i_epik_Tot_abs_Q>  (1) 
1

>  <i_i_glide_confnum>  (1) 
4

>  <i_i_glide_lignum>  (1) 
163

>  <i_i_glide_posenum>  (1) 
165

>  <i_i_glide_rotatable_bonds>  (1) 
3

>  <i_lp_mmshare_version>  (1) 
72125

>  <i_m_source_file_index>  (1) 
89

>  <i_f3d_flags>  (1) 
0

>  <num_sample>  (1) 
100

>  <b_lp_Chiralities_Consistent>  (1) 
1

>  <r_epik_Charging_Adjusted_Penalty>  (1) 
1.6999520965461032

>  <r_epik_Ionization_Penalty>  (1) 
0.8499760961676609

>  <r_epik_Ionization_Penalty_Charging>  (1) 
0.84997604827305151

>  <r_epik_Ionization_Penalty_Neutral>  (1) 
4.7894609424591191e-08

>  <r_epik_State_Penalty>  (1) 
0.84997604827305173

>  <r_glide_ring_energy>  (1) 
0

>  <r_i_docking_score>  (1) 
-3.1339966030259356

>  <r_i_glide_ecoul>  (1) 
0.79454227399046684

>  <r_i_glide_eff_state_penalty>  (1) 
0.84997604827305173

>  <r_i_glide_einternal>  (1) 
0.81787666863992303

>  <r_i_glide_emodel>  (1) 
-29.86560683199335

>  <r_i_glide_emodel_strain>  (1) 
0.48992453316657247

>  <r_i_glide_energy>  (1) 
-25.147288027278666

>  <r_i_glide_erotb>  (1) 
0.4743209619600951

>  <r_i_glide_esite>  (1) 
-0.029226471794454374

>  <r_i_glide_evdw>  (1) 
-25.941830301269132

>  <r_i_glide_gscore>  (1) 
-3.9839726512989873

>  <r_i_glide_gscore_strain>  (1) 
0

>  <r_i_glide_hbond>  (1) 
0

>  <r_i_glide_ligand_efficiency>  (1) 
-0.16494718963294397

>  <r_i_glide_ligand_efficiency_ln>  (1) 
-0.79453545094218403

>  <r_i_glide_ligand_efficiency_sa>  (1) 
-0.44014535276859906

>  <r_i_glide_lipo>  (1) 
-1.1319935697136509

>  <r_i_glide_metal>  (1) 
-0

>  <r_i_glide_rewards>  (1) 
-2.1191633977860906

>  <r_lp_Energy>  (1) 
28.916074999999999

>  <s_epik_Chemistry_Notes>  (1) 
This compound has an imine and may undergo hydrolysis.

>  <s_epik_cmdline>  (1) 
J2VwaWtfcHl0aG9uJywgJy1waHQnLCAnMS4wJywgJy1waCcsICc3LjQnLCAnLXRuJywgJzgnLCAnLW1hJywgJzUwMCcsICctaW1hZScsICc8aW5maWxlLm1hZT4nLCAnLW9tYWUnLCAnPG91dGZpbGUubWFlPic=

>  <s_epik_input>  (1) 
W09IXVtDQEhdMVtDQEBIXShGKVtDQEBIXShbQ0gzXSlbQ0BASF0oRilbQ0gyXUMvMT1OXEMoPU8pTihbQ0gyXTIpW0NIMl1bQ0gyXVtDQEBIXTJbT0hd

>  <s_glide_docking_method>  (1) 
confgen

>  <s_i_glide_gridfile>  (1) 
gpcr_drd2_6luq_protein_autoprepared_prepared

>  <s_lp_Force_Field>  (1) 
S-OPLS

>  <s_lp_Variant>  (1) 
DiffSBDD_88-4

>  <s_m_source_file>  (1) 
generated_generic_title2_ligand_DiffSBDD_2026-06-23_prepared.sdf

>  <GenAI_Model>  (1) 
DiffSBDD

>  <Protein>  (1) 
generic_title2

$$$$
DiffSBDD_45
     RDKit          3D

  0  0  0  0  0  0  0  0  0  0999 V3000
M  V30 BEGIN CTAB
M  V30 COUNTS 68 71 0 0 1
M  V30 BEGIN ATOM
M  V30 1 C 11.633454 7.875810 -7.752430 0 CFG=2
M  V30 2 C 12.661219 8.773837 -3.901277 0
M  V30 3 C 6.093718 7.007181 -15.003237 0 CFG=2
M  V30 4 C 10.828027 6.668869 -8.220866 0
M  V30 5 C 10.878574 8.620680 -6.638489 0 CFG=2
M  V30 6 C 3.753987 6.253928 -16.571469 0
M  V30 7 C 9.879801 7.861354 -10.260230 0
M  V30 8 O 12.009951 8.810476 -8.755209 0
M  V30 9 C 10.663345 7.950331 -5.256335 0
M  V30 10 N 6.023044 7.102895 -16.480388 0
M  V30 11 C 5.260137 6.650235 -18.626474 0
M  V30 12 C 7.854523 5.272270 -11.835708 0
M  V30 13 C 8.647641 5.956668 -10.984659 0
M  V30 14 C 8.606391 7.824686 -12.384171 0
M  V30 15 C 5.139624 8.135303 -18.447985 0
M  V30 16 N 9.024248 7.239843 -11.218068 0
M  V30 17 O 7.123653 4.440253 -15.147715 0
M  V30 18 C 5.156841 6.176054 -17.188412 0 CFG=2
M  V30 19 N 7.374700 5.877718 -13.022452 0
M  V30 20 O 9.547955 8.790275 -7.087947 0
M  V30 21 C 5.518814 8.389158 -16.956065 0
M  V30 22 C 11.384819 6.769153 -3.041742 0
M  V30 23 C 11.817054 7.552006 -4.301825 0
M  V30 24 C 9.206165 5.420979 -9.719319 0
M  V30 25 C 13.089348 8.382955 -9.568923 0
M  V30 26 C 7.375071 7.716619 -14.580588 0
M  V30 27 C 10.042562 6.660636 -9.319445 0
M  V30 28 O 5.118141 4.824118 -13.585518 0
M  V30 29 S 6.342609 5.301037 -14.245443 0
M  V30 30 C 7.820014 7.181082 -13.269099 0
M  V30 31 C 10.921556 5.483339 -7.343074 0
M  V30 32 H 12.568975 7.518394 -7.320727 0
M  V30 33 H 12.036218 9.564092 -3.477195 0
M  V30 34 H 13.375332 8.514943 -3.123929 0
M  V30 35 H 13.205006 9.191667 -4.751352 0
M  V30 36 H 5.231591 7.461575 -14.515826 0
M  V30 37 H 11.334224 9.601057 -6.496809 0
M  V30 38 H 2.998051 5.590358 -16.944368 0
M  V30 39 H 3.987870 5.934996 -15.585090 0
M  V30 40 H 3.267538 7.215616 -16.405626 0
M  V30 41 H 9.390201 8.709643 -9.779859 0
M  V30 42 H 10.801362 8.167257 -10.748474 0
M  V30 43 H 10.175801 8.777109 -4.785282 0
M  V30 44 H 9.937720 7.137743 -5.319402 0
M  V30 45 H 4.508650 6.231504 -19.289436 0
M  V30 46 H 6.241248 6.415538 -19.040702 0
M  V30 47 H 7.537824 4.250571 -11.684645 0
M  V30 48 H 8.980661 8.824734 -12.540599 0
M  V30 49 H 4.098744 8.390606 -18.647459 0
M  V30 50 H 5.750783 8.672338 -19.178015 0
M  V30 51 H 5.575171 5.190229 -17.115322 0
M  V30 52 H 9.437600 8.383627 -7.933992 0
M  V30 53 H 4.643412 8.671039 -16.379064 0
M  V30 54 H 6.178690 9.231462 -16.784985 0
M  V30 55 H 11.129057 7.406348 -2.196360 0
M  V30 56 H 10.554254 6.093824 -3.250696 0
M  V30 57 H 12.207881 6.141029 -2.691178 0
M  V30 58 H 12.405309 6.790700 -4.784684 0
M  V30 59 H 9.780579 4.516741 -9.894159 0
M  V30 60 H 8.407002 5.232227 -9.002424 0
M  V30 61 H 13.195135 9.052750 -10.419669 0
M  V30 62 H 14.026422 8.368051 -9.012153 0
M  V30 63 H 12.905671 7.388338 -9.973190 0
M  V30 64 H 7.375446 8.794500 -14.697514 0
M  V30 65 H 8.125092 7.221693 -15.184652 0
M  V30 66 H 9.993238 5.435050 -6.781919 0
M  V30 67 H 10.975497 4.608829 -7.985029 0
M  V30 68 H 11.782048 5.495401 -6.674718 0
M  V30 END ATOM
M  V30 BEGIN BOND
M  V30 1 1 4 1
M  V30 2 1 5 1
M  V30 3 1 8 1
M  V30 4 1 9 5
M  V30 5 1 10 3
M  V30 6 2 13 12
M  V30 7 1 15 11
M  V30 8 1 16 7
M  V30 9 1 16 13
M  V30 10 1 16 14
M  V30 11 1 18 6
M  V30 12 1 18 10
M  V30 13 1 18 11
M  V30 14 1 19 12
M  V30 15 1 20 5
M  V30 16 1 21 10
M  V30 17 1 21 15
M  V30 18 1 23 2
M  V30 19 1 23 9
M  V30 20 1 23 22
M  V30 21 1 24 13
M  V30 22 1 25 8
M  V30 23 1 26 3
M  V30 24 2 27 4
M  V30 25 1 27 7
M  V30 26 1 27 24
M  V30 27 1 29 3
M  V30 28 2 29 17
M  V30 29 1 29 19
M  V30 30 2 29 28
M  V30 31 2 30 14
M  V30 32 1 30 19
M  V30 33 1 30 26
M  V30 34 1 31 4
M  V30 35 1 1 32 CFG=1
M  V30 36 1 33 2
M  V30 37 1 34 2
M  V30 38 1 35 2
M  V30 39 1 3 36 CFG=1
M  V30 40 1 5 37 CFG=1
M  V30 41 1 38 6
M  V30 42 1 39 6
M  V30 43 1 40 6
M  V30 44 1 41 7
M  V30 45 1 42 7
M  V30 46 1 43 9
M  V30 47 1 44 9
M  V30 48 1 45 11
M  V30 49 1 46 11
M  V30 50 1 47 12
M  V30 51 1 48 14
M  V30 52 1 49 15
M  V30 53 1 50 15
M  V30 54 1 18 51 CFG=3
M  V30 55 1 52 20
M  V30 56 1 53 21
M  V30 57 1 54 21
M  V30 58 1 55 22
M  V30 59 1 56 22
M  V30 60 1 57 22
M  V30 61 1 58 23
M  V30 62 1 59 24
M  V30 63 1 60 24
M  V30 64 1 61 25
M  V30 65 1 62 25
M  V30 66 1 63 25
M  V30 67 1 64 26
M  V30 68 1 65 26
M  V30 69 1 66 31
M  V30 70 1 67 31
M  V30 71 1 68 31
M  V30 END BOND
M  V30 END CTAB
M  END
>  <i_epik_Tot_Q>  (1) 
0

>  <i_epik_Tot_abs_Q>  (1) 
0

>  <i_i_glide_confnum>  (1) 
26

>  <i_i_glide_lignum>  (1) 
74

>  <i_i_glide_posenum>  (1) 
239

>  <i_i_glide_rotatable_bonds>  (1) 
7

>  <i_lp_mmshare_version>  (1) 
72125

>  <i_m_source_file_index>  (1) 
46

>  <i_f3d_flags>  (1) 
0

>  <num_sample>  (1) 
100

>  <b_lp_Chiralities_Consistent>  (1) 
1

>  <r_epik_Charging_Adjusted_Penalty>  (1) 
5.5386030856760706e-14

>  <r_epik_Ionization_Penalty>  (1) 
0.0003901755545231811

>  <r_epik_Ionization_Penalty_Charging>  (1) 
5.5386030856760706e-14

>  <r_epik_Ionization_Penalty_Neutral>  (1) 
0.00039017555446779507

>  <r_epik_State_Penalty>  (1) 
-0

>  <r_glide_ring_energy>  (1) 
2.2033446951546671

>  <r_i_docking_score>  (1) 
-3.1136219114436492

>  <r_i_glide_ecoul>  (1) 
-0.0073080947398707075

>  <r_i_glide_eff_state_penalty>  (1) 
-0

>  <r_i_glide_einternal>  (1) 
4.3289669557185224

>  <r_i_glide_emodel>  (1) 
-6.9406403133763668

>  <r_i_glide_emodel_strain>  (1) 
4.2793394912732765

>  <r_i_glide_energy>  (1) 
-9.2338526012292252

>  <r_i_glide_erotb>  (1) 
0.39335991316148761

>  <r_i_glide_esite>  (1) 
-0.094108769193076786

>  <r_i_glide_evdw>  (1) 
-9.2265445064893541

>  <r_i_glide_gscore>  (1) 
-3.1136219114436492

>  <r_i_glide_gscore_strain>  (1) 
0.069834872818319127

>  <r_i_glide_hbond>  (1) 
0

>  <r_i_glide_ligand_efficiency>  (1) 
-0.10043941649818224

>  <r_i_glide_ligand_efficiency_ln>  (1) 
-0.70221716208249374

>  <r_i_glide_ligand_efficiency_sa>  (1) 
-0.31551843972487059

>  <r_i_glide_lipo>  (1) 
-2.1865411336366796

>  <r_i_glide_metal>  (1) 
-0

>  <r_i_glide_rewards>  (1) 
-0.83374335505825159

>  <r_lp_Energy>  (1) 
32.319353999999997

>  <r_lp_tautomer_probability>  (1) 
1

>  <s_epik_Chemistry_Notes>  (1) 
This compound has an imine and may undergo hydrolysis.

>  <s_epik_cmdline>  (1) 
J2VwaWtfcHl0aG9uJywgJy1waHQnLCAnMS4wJywgJy1waCcsICc3LjQnLCAnLXRuJywgJzgnLCAnLW1hJywgJzUwMCcsICctaW1hZScsICc8aW5maWxlLm1hZT4nLCAnLW9tYWUnLCAnPG91dGZpbGUubWFlPic=

>  <s_epik_input>  (1) 
W0NIM11bQ0hdKFtDSDNdKVtDSDJdW0NASF0oW09IXSlbQ0BIXShPW0NIM10pL0MoW0NIM10pPUMoW0NIMl0xKVxbQ0gyXU4oQzEyKVtDSF09QzNOKFtDSF09MilTKD1PKSg9TylbQ0BASF0oW0NIMl0zKU40W0NAQEhdKFtDSDNdKVtDSDJdW0NIMl1bQ0gyXTQ=

>  <s_glide_docking_method>  (1) 
confgen

>  <s_i_glide_gridfile>  (1) 
gpcr_drd2_6luq_protein_autoprepared_prepared

>  <s_lp_Force_Field>  (1) 
S-OPLS

>  <s_lp_Variant>  (1) 
DiffSBDD_45-2

>  <s_m_source_file>  (1) 
generated_generic_title2_ligand_DiffSBDD_2026-06-23_prepared.sdf

>  <GenAI_Model>  (1) 
DiffSBDD

>  <Protein>  (1) 
generic_title2

$$$$
DiffSBDD_81
     RDKit          3D

  0  0  0  0  0  0  0  0  0  0999 V3000
M  V30 BEGIN CTAB
M  V30 COUNTS 68 71 0 0 1
M  V30 BEGIN ATOM
M  V30 1 C 7.150006 4.808781 -13.728928 0 CFG=1
M  V30 2 C 6.618297 5.158940 -21.010322 0
M  V30 3 O 6.795175 1.996240 -23.923099 0
M  V30 4 C 6.868512 3.077573 -23.019313 0
M  V30 5 C 8.265139 6.033136 -11.696911 0
M  V30 6 C 9.505889 6.256139 -9.705616 0
M  V30 7 C 9.346502 6.636077 -11.075773 0
M  V30 8 C 8.207059 3.673364 -13.677802 0
M  V30 9 O 5.775411 0.689086 -21.575235 0
M  V30 10 O 6.786811 7.189926 -13.222490 0
M  V30 11 C 7.818947 5.306753 -16.250700 0 CFG=2
M  V30 12 C 10.281669 6.791418 -7.475378 0
M  V30 13 C 6.175364 4.077852 -10.712369 0 CFG=1
M  V30 14 C 6.707022 5.019773 -15.211068 0
M  V30 15 C 7.453364 4.790222 -10.036769 0
M  V30 16 O 6.692334 2.158392 -20.023432 0
M  V30 17 N 5.909777 4.410974 -13.021768 0
M  V30 18 C 4.488994 5.270877 -22.233894 0
M  V30 19 C 7.555739 5.191954 -10.883827 0
M  V30 20 C 5.651212 3.080671 -22.056292 0 CFG=1
M  V30 21 O 6.221108 3.432682 -11.985000 0
M  V30 22 C 7.724994 6.141009 -13.111956 0 CFG=2
M  V30 23 C 7.375406 6.142793 -17.466621 0
M  V30 24 C 8.532799 5.281848 -9.169487 0
M  V30 25 C 6.397582 6.105262 -19.840470 0 CFG=2
M  V30 26 C 6.416758 5.496506 -18.446586 0 CFG=2
M  V30 27 O 8.413841 4.110115 -16.717357 0
M  V30 28 O 10.927463 8.090864 -9.282144 0
M  V30 29 C 5.175445 6.191265 -18.958040 0
M  V30 30 C 5.675712 1.960219 -20.976708 0
M  V30 31 N 10.547671 6.790198 -8.908952 0
M  V30 32 N 5.398030 4.417567 -21.429217 0 CFG=1 CHG=1
M  V30 33 H 7.009070 5.730490 -21.854162 0
M  V30 34 H 7.420471 4.482423 -20.718902 0
M  V30 35 H 6.715901 1.192996 -23.422820 0
M  V30 36 H 6.891810 3.988547 -23.617876 0
M  V30 37 H 7.812623 3.022615 -22.477421 0
M  V30 38 H 9.999963 7.333218 -11.577595 0
M  V30 39 H 9.116735 3.990260 -14.183026 0
M  V30 40 H 8.520992 3.404109 -12.669700 0
M  V30 41 H 7.848853 2.765009 -14.163179 0
M  V30 42 H 4.898416 0.390118 -21.820910 0
M  V30 43 H 6.111408 7.028358 -12.579787 0
M  V30 44 H 8.614366 5.875525 -15.774502 0
M  V30 45 H 10.359132 5.782800 -7.068628 0
M  V30 46 H 11.007993 7.408707 -6.945863 0
M  V30 47 H 9.285462 7.182554 -7.258419 0
M  V30 48 H 5.265036 4.654432 -10.557607 0
M  V30 49 H 6.175411 4.133674 -15.537806 0
M  V30 50 H 5.972916 5.825721 -15.251742 0
M  V30 51 H 7.504576 1.834289 -20.384652 0
M  V30 52 H 5.316460 3.906300 -13.663156 0
M  V30 53 H 4.917084 5.489729 -23.213214 0
M  V30 54 H 3.528412 4.782643 -22.385226 0
M  V30 55 H 4.291348 6.220162 -21.734740 0
M  V30 56 H 4.776594 2.865061 -22.673419 0
M  V30 57 H 8.576570 6.447426 -13.706838 0
M  V30 58 H 6.950721 7.090382 -17.134902 0
M  V30 59 H 8.279362 6.390221 -18.024272 0
M  V30 60 H 8.596665 4.946765 -8.146456 0
M  V30 61 H 6.949931 7.037355 -19.951369 0
M  V30 62 H 6.367227 4.410990 -18.394266 0
M  V30 63 H 7.756293 3.584004 -17.145948 0
M  V30 64 H 11.815920 8.018475 -9.595513 0
M  V30 65 H 4.311744 5.590225 -19.219398 0
M  V30 66 H 4.934496 7.163851 -18.532087 0
M  V30 67 H 4.732917 1.975717 -20.427528 0
M  V30 68 H 4.909058 4.208511 -20.570287 0
M  V30 END ATOM
M  V30 BEGIN BOND
M  V30 1 1 4 3
M  V30 2 2 7 5
M  V30 3 1 7 6
M  V30 4 1 1 8 CFG=3
M  V30 5 1 14 1
M  V30 6 1 14 11
M  V30 7 1 15 13
M  V30 8 1 17 1
M  V30 9 1 19 5
M  V30 10 1 19 13
M  V30 11 2 19 15
M  V30 12 1 20 4
M  V30 13 1 21 13
M  V30 14 1 21 17
M  V30 15 1 22 1
M  V30 16 1 22 5
M  V30 17 1 22 10
M  V30 18 1 23 11
M  V30 19 2 24 6
M  V30 20 1 24 15
M  V30 21 1 25 2
M  V30 22 1 26 23
M  V30 23 1 26 25
M  V30 24 1 27 11
M  V30 25 1 29 25
M  V30 26 1 29 26
M  V30 27 1 30 9
M  V30 28 1 30 16
M  V30 29 1 30 20
M  V30 30 1 31 6
M  V30 31 1 31 12
M  V30 32 1 31 28
M  V30 33 1 32 2
M  V30 34 1 32 18
M  V30 35 1 32 20
M  V30 36 1 33 2
M  V30 37 1 34 2
M  V30 38 1 35 3
M  V30 39 1 36 4
M  V30 40 1 37 4
M  V30 41 1 38 7
M  V30 42 1 39 8
M  V30 43 1 40 8
M  V30 44 1 41 8
M  V30 45 1 42 9
M  V30 46 1 43 10
M  V30 47 1 11 44 CFG=1
M  V30 48 1 45 12
M  V30 49 1 46 12
M  V30 50 1 47 12
M  V30 51 1 13 48 CFG=1
M  V30 52 1 49 14
M  V30 53 1 50 14
M  V30 54 1 51 16
M  V30 55 1 52 17
M  V30 56 1 53 18
M  V30 57 1 54 18
M  V30 58 1 55 18
M  V30 59 1 20 56 CFG=3
M  V30 60 1 22 57 CFG=3
M  V30 61 1 58 23
M  V30 62 1 59 23
M  V30 63 1 60 24
M  V30 64 1 25 61 CFG=1
M  V30 65 1 26 62 CFG=3
M  V30 66 1 63 27
M  V30 67 1 64 28
M  V30 68 1 65 29
M  V30 69 1 66 29
M  V30 70 1 67 30
M  V30 71 1 32 68 CFG=1
M  V30 END BOND
M  V30 END CTAB
M  END
>  <i_epik_Tot_Q>  (1) 
1

>  <i_epik_Tot_abs_Q>  (1) 
1

>  <i_i_glide_confnum>  (1) 
1156

>  <i_i_glide_lignum>  (1) 
144

>  <i_i_glide_posenum>  (1) 
78

>  <i_i_glide_rotatable_bonds>  (1) 
16

>  <i_lp_mmshare_version>  (1) 
72125

>  <i_m_source_file_index>  (1) 
82

>  <i_f3d_flags>  (1) 
0

>  <num_sample>  (1) 
100

>  <b_lp_Chiralities_Consistent>  (1) 
1

>  <r_epik_Charging_Adjusted_Penalty>  (1) 
0.61642058797261945

>  <r_epik_Ionization_Penalty>  (1) 
0.30960007796245242

>  <r_epik_Ionization_Penalty_Charging>  (1) 
0.30821029398630978

>  <r_epik_Ionization_Penalty_Neutral>  (1) 
0.0013897839761426282

>  <r_epik_State_Penalty>  (1) 
0.30821029398630967

>  <r_glide_ring_energy>  (1) 
0

>  <r_i_docking_score>  (1) 
-3.0992376907764414

>  <r_i_glide_ecoul>  (1) 
-3.5128386331164574

>  <r_i_glide_eff_state_penalty>  (1) 
0.30821029398630967

>  <r_i_glide_einternal>  (1) 
13.097822103950769

>  <r_i_glide_emodel>  (1) 
-29.038270514597514

>  <r_i_glide_emodel_strain>  (1) 
3.9789058372823547

>  <r_i_glide_energy>  (1) 
-32.403535494261689

>  <r_i_glide_erotb>  (1) 
0.97195684176611152

>  <r_i_glide_esite>  (1) 
-0.033065480807635758

>  <r_i_glide_evdw>  (1) 
-28.89069686114523

>  <r_i_glide_gscore>  (1) 
-3.4074479847627512

>  <r_i_glide_gscore_strain>  (1) 
0

>  <r_i_glide_hbond>  (1) 
-0.32000000000000001

>  <r_i_glide_ligand_efficiency>  (1) 
-0.096851177836763794

>  <r_i_glide_ligand_efficiency_ln>  (1) 
-0.69400380099356529

>  <r_i_glide_ligand_efficiency_sa>  (1) 
-0.30748332316487609

>  <r_i_glide_lipo>  (1) 
-1.0961900987005184

>  <r_i_glide_metal>  (1) 
-0

>  <r_i_glide_rewards>  (1) 
-0.95868860899597863

>  <r_lp_Energy>  (1) 
74.801774999999992

>  <s_epik_Chemistry_Notes>  (1) 
This compound contains an acetal/aminal-like group ( X-CH(R)-Y where X, Y are N, S, or O) that may be acid/base labile, releasing an aldehyde. This compound has a N-S or N-O group and may undergo hydrolysis at high or low pH.

>  <s_epik_cmdline>  (1) 
J2VwaWtfcHl0aG9uJywgJy1waHQnLCAnMS4wJywgJy1waCcsICc3LjQnLCAnLXRuJywgJzgnLCAnLW1hJywgJzUwMCcsICctaW1hZScsICc8aW5maWxlLm1hZT4nLCAnLW9tYWUnLCAnPG91dGZpbGUubWFlPic=

>  <s_epik_input>  (1) 
W0NIM11OKFtPSF0pYyhbY0hdMSlbY0hdYyhjMmMxMylbQ0BASF0yT1tOSF1bQ0BdKFtDSDNdKShbQ0BIXTNbT0hdKVtDSDJdW0NAQEhdKFtPSF0pW0NIMl1bQ0BASF0oW0NIMl00KVtDQEhdNFtDSDJdTihbQ0gzXSlbQ0BASF0oW0NIMl1bT0hdKVtDSF0oW09IXSlbT0hd

>  <s_glide_docking_method>  (1) 
confgen

>  <s_i_glide_gridfile>  (1) 
gpcr_drd2_6luq_protein_autoprepared_prepared

>  <s_lp_Force_Field>  (1) 
S-OPLS

>  <s_lp_Variant>  (1) 
DiffSBDD_81-2

>  <s_m_source_file>  (1) 
generated_generic_title2_ligand_DiffSBDD_2026-06-23_prepared.sdf

>  <GenAI_Model>  (1) 
DiffSBDD

>  <Protein>  (1) 
generic_title2

$$$$
DiffSBDD_34
     RDKit          3D

  0  0  0  0  0  0  0  0  0  0999 V3000
M  V30 BEGIN CTAB
M  V30 COUNTS 48 50 0 0 1
M  V30 BEGIN ATOM
M  V30 1 O 15.967627 9.981941 -20.056660 0
M  V30 2 C 14.282301 2.123407 -18.888952 0
M  V30 3 C 16.562424 0.899921 -20.087520 0
M  V30 4 C 14.788961 9.559367 -19.378976 0 CFG=2
M  V30 5 C 16.617606 9.590245 -17.827559 0
M  V30 6 C 12.330218 4.820737 -17.318599 0
M  V30 7 C 15.138854 9.927877 -17.935452 0
M  V30 8 C 17.111455 9.647073 -19.275745 0
M  V30 9 C 11.024223 4.328863 -17.184931 0
M  V30 10 N 13.342747 4.102349 -17.858369 0
M  V30 11 C 13.370371 -0.235230 -18.335996 0
M  V30 12 C 15.549551 0.099741 -19.546091 0
M  V30 13 C 11.790698 2.268455 -18.188622 0
M  V30 14 C 13.091847 2.836424 -18.283346 0
M  V30 15 C 14.330673 7.794228 -21.159777 0
M  V30 16 O 12.212657 7.590227 -19.254166 0
M  V30 17 C 10.751170 3.031941 -17.631631 0
M  V30 18 C 12.678322 6.224881 -16.847825 0
M  V30 19 C 14.413061 0.684090 -18.943341 0
M  V30 20 C 13.368538 7.483413 -18.843059 0
M  V30 21 C 14.541548 8.053187 -19.656163 0 CFG=2
M  V30 22 C 16.461731 2.293504 -20.029710 0
M  V30 23 C 15.341880 2.901847 -19.435472 0
M  V30 24 N 13.680814 6.865128 -17.694015 0
M  V30 25 Cl 9.158562 2.381010 -17.507638 0
M  V30 26 H 17.426366 0.440109 -20.544874 0
M  V30 27 H 13.935534 10.142379 -19.724469 0
M  V30 28 H 16.760295 8.587127 -17.426306 0
M  V30 29 H 17.147149 10.291017 -17.181305 0
M  V30 30 H 14.998044 11.001080 -17.804408 0
M  V30 31 H 14.522453 9.435653 -17.185028 0
M  V30 32 H 17.506464 8.680420 -19.589728 0
M  V30 33 H 17.896234 10.390185 -19.418629 0
M  V30 34 H 10.245351 4.938301 -16.750626 0
M  V30 35 H 13.004197 0.116330 -17.371290 0
M  V30 36 H 12.559687 -0.409772 -19.039946 0
M  V30 37 H 13.818935 -1.209774 -18.140545 0
M  V30 38 H 15.642932 -0.975988 -19.584941 0
M  V30 39 H 11.581675 1.287989 -18.553189 0
M  V30 40 H 14.107049 6.744821 -21.356410 0
M  V30 41 H 13.508501 8.391667 -21.555998 0
M  V30 42 H 15.224883 8.048304 -21.729191 0
M  V30 43 H 11.777011 6.836754 -16.782754 0
M  V30 44 H 13.077201 6.155204 -15.835699 0
M  V30 45 H 15.426157 7.486693 -19.363813 0
M  V30 46 H 17.248687 2.906179 -20.444871 0
M  V30 47 H 15.282677 3.980086 -19.408464 0
M  V30 48 H 14.646644 6.803168 -17.411997 0
M  V30 END ATOM
M  V30 BEGIN BOND
M  V30 1 1 4 1
M  V30 2 1 7 4
M  V30 3 1 7 5
M  V30 4 1 8 1
M  V30 5 1 8 5
M  V30 6 1 9 6
M  V30 7 2 10 6
M  V30 8 1 12 3
M  V30 9 1 14 2
M  V30 10 1 14 10
M  V30 11 2 14 13
M  V30 12 2 17 9
M  V30 13 1 17 13
M  V30 14 1 18 6
M  V30 15 1 19 2
M  V30 16 1 19 11
M  V30 17 2 19 12
M  V30 18 2 20 16
M  V30 19 1 21 4
M  V30 20 1 21 15
M  V30 21 1 21 20
M  V30 22 2 22 3
M  V30 23 2 23 2
M  V30 24 1 23 22
M  V30 25 1 24 18
M  V30 26 1 24 20
M  V30 27 1 25 17
M  V30 28 1 26 3
M  V30 29 1 4 27 CFG=3
M  V30 30 1 28 5
M  V30 31 1 29 5
M  V30 32 1 30 7
M  V30 33 1 31 7
M  V30 34 1 32 8
M  V30 35 1 33 8
M  V30 36 1 34 9
M  V30 37 1 35 11
M  V30 38 1 36 11
M  V30 39 1 37 11
M  V30 40 1 38 12
M  V30 41 1 39 13
M  V30 42 1 40 15
M  V30 43 1 41 15
M  V30 44 1 42 15
M  V30 45 1 43 18
M  V30 46 1 44 18
M  V30 47 1 21 45 CFG=1
M  V30 48 1 46 22
M  V30 49 1 47 23
M  V30 50 1 48 24
M  V30 END BOND
M  V30 END CTAB
M  END
>  <i_epik_Tot_Q>  (1) 
0

>  <i_epik_Tot_abs_Q>  (1) 
0

>  <i_i_glide_confnum>  (1) 
91

>  <i_i_glide_lignum>  (1) 
57

>  <i_i_glide_posenum>  (1) 
105

>  <i_i_glide_rotatable_bonds>  (1) 
6

>  <i_lp_mmshare_version>  (1) 
72125

>  <i_m_source_file_index>  (1) 
35

>  <i_f3d_flags>  (1) 
0

>  <num_sample>  (1) 
100

>  <b_lp_Chiralities_Consistent>  (1) 
1

>  <r_epik_Charging_Adjusted_Penalty>  (1) 
0

>  <r_epik_Ionization_Penalty>  (1) 
0.00017143064018834461

>  <r_epik_Ionization_Penalty_Charging>  (1) 
0

>  <r_epik_Ionization_Penalty_Neutral>  (1) 
0.00017143064018834461

>  <r_epik_State_Penalty>  (1) 
-0

>  <r_glide_ring_energy>  (1) 
1.2359945553335399

>  <r_i_docking_score>  (1) 
-3.0972716006365104

>  <r_i_glide_ecoul>  (1) 
-0.94710517114829618

>  <r_i_glide_eff_state_penalty>  (1) 
-0

>  <r_i_glide_einternal>  (1) 
1.5978380554618141

>  <r_i_glide_emodel>  (1) 
-32.074474898811324

>  <r_i_glide_emodel_strain>  (1) 
0.028573769590259701

>  <r_i_glide_energy>  (1) 
-27.005105566855047

>  <r_i_glide_erotb>  (1) 
0.74388536090720081

>  <r_i_glide_esite>  (1) 
-0.0067547843249602842

>  <r_i_glide_evdw>  (1) 
-26.058000395706749

>  <r_i_glide_gscore>  (1) 
-3.0972716006365104

>  <r_i_glide_gscore_strain>  (1) 
0

>  <r_i_glide_hbond>  (1) 
0

>  <r_i_glide_ligand_efficiency>  (1) 
-0.12389086402546041

>  <r_i_glide_ligand_efficiency_ln>  (1) 
-0.73414618709079216

>  <r_i_glide_ligand_efficiency_sa>  (1) 
-0.36225908401296453

>  <r_i_glide_lipo>  (1) 
-1.4272041371614812

>  <r_i_glide_metal>  (1) 
-0

>  <r_i_glide_rewards>  (1) 
-0.96223224459968792

>  <r_lp_Energy>  (1) 
21.087142

>  <r_lp_tautomer_probability>  (1) 
1

>  <s_epik_cmdline>  (1) 
J2VwaWtfcHl0aG9uJywgJy1waHQnLCAnMS4wJywgJy1waCcsICc3LjQnLCAnLXRuJywgJzgnLCAnLW1hJywgJzUwMCcsICctaW1hZScsICc8aW5maWxlLm1hZT4nLCAnLW9tYWUnLCAnPG91dGZpbGUubWFlPic=

>  <s_epik_input>  (1) 
W0NIMl0xW0NIMl1bQ0gyXU9bQ0BIXTFbQ0BIXShbQ0gzXSlDKD1PKVtOSF1bQ0gyXWMyW2NIXWMoQ2wpW2NIXWMobjIpLWMzYyhbQ0gzXSlbY0hdW2NIXVtjSF1bY0hdMw==

>  <s_glide_docking_method>  (1) 
confgen

>  <s_i_glide_gridfile>  (1) 
gpcr_drd2_6luq_protein_autoprepared_prepared

>  <s_lp_Force_Field>  (1) 
S-OPLS

>  <s_lp_Variant>  (1) 
DiffSBDD_34-1

>  <s_m_source_file>  (1) 
generated_generic_title2_ligand_DiffSBDD_2026-06-23_prepared.sdf

>  <GenAI_Model>  (1) 
DiffSBDD

>  <Protein>  (1) 
generic_title2

$$$$
DiffSBDD_7
     RDKit          3D

  0  0  0  0  0  0  0  0  0  0999 V3000
M  V30 BEGIN CTAB
M  V30 COUNTS 63 65 0 0 1
M  V30 BEGIN ATOM
M  V30 1 C 13.642248 4.891949 -17.395601 0
M  V30 2 C 14.380897 5.568791 -18.391611 0
M  V30 3 C 15.259336 7.711499 -19.445395 0
M  V30 4 C 5.291930 -3.622178 -20.439690 0
M  V30 5 F 16.499344 7.914129 -19.001227 0
M  V30 6 C 6.982321 -1.946270 -19.538224 0
M  V30 7 N 10.389195 1.419585 -18.051271 0
M  V30 8 C 4.853796 -2.392282 -18.254411 0 CFG=1
M  V30 9 C 6.623769 -0.784897 -17.278169 0 CFG=2
M  V30 10 C 12.562602 0.295778 -17.985036 0
M  V30 11 C 14.830672 1.143381 -17.152979 0
M  V30 12 C 14.897257 2.650753 -17.476653 0
M  V30 13 C 7.668752 -1.348842 -18.290290 0 CFG=2
M  V30 14 C 5.482884 -1.792943 -16.988938 0
M  V30 15 F 4.175406 -1.447326 -18.902349 0
M  V30 16 C 14.463252 6.978973 -18.374813 0
M  V30 17 C 9.620221 2.641250 -18.293364 0
M  V30 18 F 15.318483 7.000705 -20.572248 0
M  V30 19 C 5.919139 -3.000278 -19.181943 0 CFG=1
M  V30 20 S 12.472314 2.903543 -18.801066 0
M  V30 21 C 8.751253 -0.332087 -18.734209 0
M  V30 22 C 14.070154 0.277736 -18.177263 0
M  V30 23 C 9.598326 0.269974 -17.597052 0
M  V30 24 C 13.538032 3.372128 -17.415489 0 CFG=2
M  V30 25 C 6.054190 0.596466 -17.654068 0
M  V30 26 C 12.990077 5.628616 -16.385070 0
M  V30 27 C 13.074820 7.031986 -16.367635 0
M  V30 28 F 14.705607 8.892398 -19.723667 0
M  V30 29 C 11.785436 1.371673 -18.226470 0
M  V30 30 C 13.808153 7.707793 -17.360123 0
M  V30 31 H 14.879766 5.008500 -19.168403 0
M  V30 32 H 4.792550 -2.868393 -21.049884 0
M  V30 33 H 6.049261 -4.102242 -21.059711 0
M  V30 34 H 4.552933 -4.379663 -20.176945 0
M  V30 35 H 6.523064 -1.148893 -20.124543 0
M  V30 36 H 7.735037 -2.400608 -20.183669 0
M  V30 37 H 4.122581 -3.151354 -17.973494 0
M  V30 38 H 7.141082 -0.643593 -16.328472 0
M  V30 39 H 12.121319 -0.620300 -17.631873 0
M  V30 40 H 15.851033 0.772703 -17.094080 0
M  V30 41 H 14.416476 0.994990 -16.158244 0
M  V30 42 H 15.371161 2.804947 -18.446423 0
M  V30 43 H 15.554876 3.113045 -16.739608 0
M  V30 44 H 8.183733 -2.169609 -17.787647 0
M  V30 45 H 4.708615 -1.325352 -16.379504 0
M  V30 46 H 5.854827 -2.617244 -16.385067 0
M  V30 47 H 10.004191 3.466277 -17.692182 0
M  V30 48 H 9.666956 2.922917 -19.345736 0
M  V30 49 H 8.571662 2.526889 -18.031389 0
M  V30 50 H 6.414632 -3.804136 -18.635160 0
M  V30 51 H 8.274114 0.462835 -19.307245 0
M  V30 52 H 9.431832 -0.815962 -19.435776 0
M  V30 53 H 14.392663 -0.759922 -18.080841 0
M  V30 54 H 14.319754 0.575261 -19.196339 0
M  V30 55 H 10.191815 -0.515002 -17.138668 0
M  V30 56 H 8.949151 0.629218 -16.799150 0
M  V30 57 H 13.029420 3.068160 -16.499255 0
M  V30 58 H 5.517182 0.584283 -18.601688 0
M  V30 59 H 5.375226 0.946727 -16.880176 0
M  V30 60 H 6.829440 1.351797 -17.728045 0
M  V30 61 H 12.422017 5.116910 -15.622942 0
M  V30 62 H 12.575537 7.590436 -15.591857 0
M  V30 63 H 13.869144 8.786764 -17.343834 0
M  V30 END ATOM
M  V30 BEGIN BOND
M  V30 1 2 2 1
M  V30 2 1 5 3
M  V30 3 1 12 11
M  V30 4 1 13 6
M  V30 5 1 13 9
M  V30 6 1 14 8
M  V30 7 1 14 9
M  V30 8 1 15 8
M  V30 9 1 16 2
M  V30 10 1 16 3
M  V30 11 1 17 7
M  V30 12 1 18 3
M  V30 13 1 19 4
M  V30 14 1 19 6
M  V30 15 1 19 8
M  V30 16 1 21 13
M  V30 17 1 22 10
M  V30 18 1 22 11
M  V30 19 1 23 7
M  V30 20 1 23 21
M  V30 21 1 24 1
M  V30 22 1 24 12
M  V30 23 1 24 20
M  V30 24 1 25 9
M  V30 25 1 26 1
M  V30 26 2 27 26
M  V30 27 1 28 3
M  V30 28 1 29 7
M  V30 29 2 29 10
M  V30 30 1 29 20
M  V30 31 2 30 16
M  V30 32 1 30 27
M  V30 33 1 31 2
M  V30 34 1 32 4
M  V30 35 1 33 4
M  V30 36 1 34 4
M  V30 37 1 35 6
M  V30 38 1 36 6
M  V30 39 1 8 37 CFG=1
M  V30 40 1 9 38 CFG=1
M  V30 41 1 39 10
M  V30 42 1 40 11
M  V30 43 1 41 11
M  V30 44 1 42 12
M  V30 45 1 43 12
M  V30 46 1 13 44 CFG=1
M  V30 47 1 45 14
M  V30 48 1 46 14
M  V30 49 1 47 17
M  V30 50 1 48 17
M  V30 51 1 49 17
M  V30 52 1 19 50 CFG=1
M  V30 53 1 51 21
M  V30 54 1 52 21
M  V30 55 1 53 22
M  V30 56 1 54 22
M  V30 57 1 55 23
M  V30 58 1 56 23
M  V30 59 1 24 57 CFG=1
M  V30 60 1 58 25
M  V30 61 1 59 25
M  V30 62 1 60 25
M  V30 63 1 61 26
M  V30 64 1 62 27
M  V30 65 1 63 30
M  V30 END BOND
M  V30 END CTAB
M  END
>  <i_epik_Tot_Q>  (1) 
0

>  <i_epik_Tot_abs_Q>  (1) 
0

>  <i_i_glide_confnum>  (1) 
91

>  <i_i_glide_lignum>  (1) 
10

>  <i_i_glide_posenum>  (1) 
125

>  <i_i_glide_rotatable_bonds>  (1) 
6

>  <i_lp_mmshare_version>  (1) 
72125

>  <i_m_source_file_index>  (1) 
8

>  <i_f3d_flags>  (1) 
0

>  <num_sample>  (1) 
100

>  <b_lp_Chiralities_Consistent>  (1) 
1

>  <r_epik_Charging_Adjusted_Penalty>  (1) 
4.04831774087807e-08

>  <r_epik_Ionization_Penalty>  (1) 
4.3565120574992374e-05

>  <r_epik_Ionization_Penalty_Charging>  (1) 
4.04831774087807e-08

>  <r_epik_Ionization_Penalty_Neutral>  (1) 
4.3524637397583592e-05

>  <r_epik_State_Penalty>  (1) 
-0

>  <r_glide_ring_energy>  (1) 
0

>  <r_i_docking_score>  (1) 
-3.078104922273825

>  <r_i_glide_ecoul>  (1) 
-0.35731027845794383

>  <r_i_glide_eff_state_penalty>  (1) 
-0

>  <r_i_glide_einternal>  (1) 
7.0731333821571596

>  <r_i_glide_emodel>  (1) 
-26.791007769285468

>  <r_i_glide_emodel_strain>  (1) 
0

>  <r_i_glide_energy>  (1) 
-26.764307865991992

>  <r_i_glide_erotb>  (1) 
0.50801221273644082

>  <r_i_glide_esite>  (1) 
0

>  <r_i_glide_evdw>  (1) 
-26.406997587534047

>  <r_i_glide_gscore>  (1) 
-3.078104922273825

>  <r_i_glide_gscore_strain>  (1) 
0

>  <r_i_glide_hbond>  (1) 
0

>  <r_i_glide_ligand_efficiency>  (1) 
-0.1026034974091275

>  <r_i_glide_ligand_efficiency_ln>  (1) 
-0.69937897697997542

>  <r_i_glide_ligand_efficiency_sa>  (1) 
-0.31881292237419356

>  <r_i_glide_lipo>  (1) 
-1.3442212237415632

>  <r_i_glide_metal>  (1) 
-0

>  <r_i_glide_rewards>  (1) 
-0.8679494901233088

>  <r_lp_Energy>  (1) 
42.291399999999996

>  <r_lp_tautomer_probability>  (1) 
1

>  <s_epik_Chemistry_Notes>  (1) 
This compound has an imine and may undergo hydrolysis.

>  <s_epik_cmdline>  (1) 
J2VwaWtfcHl0aG9uJywgJy1waHQnLCAnMS4wJywgJy1waCcsICc3LjQnLCAnLXRuJywgJzgnLCAnLW1hJywgJzUwMCcsICctaW1hZScsICc8aW5maWxlLm1hZT4nLCAnLW9tYWUnLCAnPG91dGZpbGUubWFlPic=

>  <s_epik_input>  (1) 
W2NIXTFbY0hdW2NIXWMoQyhGKShGKUYpW2NIXWMxW0NAQEhdMltDSDJdW0NIMl1bQ0gyXVtDSF09QyhTMilOKFtDSDNdKVtDSDJdW0NIMl1bQ0BIXShbQ0gyXVtDQEBIXTNbQ0gzXSlbQ0BASF0oW0NIM10pW0NIMl1bQ0BIXTNG

>  <s_glide_docking_method>  (1) 
confgen

>  <s_i_glide_gridfile>  (1) 
gpcr_drd2_6luq_protein_autoprepared_prepared

>  <s_lp_Force_Field>  (1) 
S-OPLS

>  <s_lp_Variant>  (1) 
DiffSBDD_7-1

>  <s_m_source_file>  (1) 
generated_generic_title2_ligand_DiffSBDD_2026-06-23_prepared.sdf

>  <GenAI_Model>  (1) 
DiffSBDD

>  <Protein>  (1) 
generic_title2

$$$$
DiffSBDD_26
     RDKit          3D

  0  0  0  0  0  0  0  0  0  0999 V3000
M  V30 BEGIN CTAB
M  V30 COUNTS 56 58 0 0 1
M  V30 BEGIN ATOM
M  V30 1 C 7.436686 7.185239 -14.726998 0
M  V30 2 O 4.947696 0.390247 -14.006569 0
M  V30 3 C 7.521178 5.720538 -18.021151 0 CFG=1
M  V30 4 C 6.574287 3.990209 -10.756376 0
M  V30 5 C 5.263027 6.747175 -18.706083 0
M  V30 6 C 8.529997 5.018509 -14.414912 0
M  V30 7 C 6.452378 5.040116 -12.893099 0 CFG=2
M  V30 8 C 6.024904 5.391014 -10.565701 0
M  V30 9 C 7.279394 7.807916 -12.199340 0
M  V30 10 N 5.731496 5.892976 -11.909964 0 CFG=1 CHG=1
M  V30 11 N 7.342023 2.691655 -12.785022 0
M  V30 12 C 8.667589 4.786600 -18.438165 0
M  V30 13 C 6.800361 1.865987 -13.857612 0
M  V30 14 C 5.825310 7.363739 -12.048244 0
M  V30 15 C 6.347552 5.704184 -19.046450 0
M  V30 16 C 7.972782 7.025181 -13.294099 0 CFG=1
M  V30 17 C 8.061987 5.990228 -15.503673 0 CFG=1
M  V30 18 C 6.379516 3.656801 -12.245086 0 CFG=1
M  V30 19 O 9.839279 5.099731 -18.236126 0
M  V30 20 C 7.109458 5.380475 -16.566474 0
M  V30 21 O 6.175409 0.342635 -12.144533 0 CHG=-1
M  V30 22 C 7.916692 5.521243 -13.099459 0 CFG=2
M  V30 23 C 6.821831 5.958763 -20.495033 0
M  V30 24 C 5.898473 0.768336 -13.290499 0
M  V30 25 H 7.625154 8.171919 -15.137851 0
M  V30 26 H 6.352209 7.101836 -14.733076 0
M  V30 27 H 7.923364 6.732312 -18.034133 0
M  V30 28 H 6.068441 3.279153 -10.103537 0
M  V30 29 H 7.632775 3.990258 -10.497068 0
M  V30 30 H 5.697966 7.734618 -18.552236 0
M  V30 31 H 4.697774 6.485958 -17.813012 0
M  V30 32 H 4.535540 6.835721 -19.512513 0
M  V30 33 H 8.322899 3.983600 -14.663370 0
M  V30 34 H 9.617024 5.079851 -14.327866 0
M  V30 35 H 5.906126 5.036496 -13.837013 0
M  V30 36 H 5.105106 5.424908 -9.985093 0
M  V30 37 H 6.779473 5.990227 -10.067308 0
M  V30 38 H 7.835755 7.635016 -11.279214 0
M  V30 39 H 7.375427 8.874094 -12.383492 0
M  V30 40 H 7.537709 1.995507 -12.071098 0
M  V30 41 H 8.365593 3.852038 -18.911116 0
M  V30 42 H 6.272610 2.470990 -14.592695 0
M  V30 43 H 7.623142 1.373957 -14.373858 0
M  V30 44 H 5.236932 7.667531 -12.912099 0
M  V30 45 H 5.364946 7.850467 -11.187314 0
M  V30 46 H 5.876529 4.719889 -19.022757 0
M  V30 47 H 9.012453 7.313787 -13.185025 0
M  V30 48 H 8.993356 6.284704 -15.983096 0
M  V30 49 H 5.375392 3.274771 -12.373204 0
M  V30 50 H 6.090904 5.697900 -16.364982 0
M  V30 51 H 7.064047 4.296162 -16.457929 0
M  V30 52 H 8.543306 5.235190 -12.251964 0
M  V30 53 H 7.374221 6.897426 -20.568484 0
M  V30 54 H 5.978766 6.019939 -21.185025 0
M  V30 55 H 7.467329 5.162180 -20.867390 0
M  V30 56 H 4.757858 5.670557 -12.043251 0
M  V30 END ATOM
M  V30 BEGIN BOND
M  V30 1 1 8 4
M  V30 2 1 10 7
M  V30 3 1 10 8
M  V30 4 1 12 3
M  V30 5 1 13 11
M  V30 6 1 14 9
M  V30 7 1 14 10
M  V30 8 1 15 3
M  V30 9 1 15 5
M  V30 10 1 16 1
M  V30 11 1 16 9
M  V30 12 1 17 1
M  V30 13 1 17 6
M  V30 14 1 18 4
M  V30 15 1 18 7
M  V30 16 1 18 11
M  V30 17 2 19 12
M  V30 18 1 20 3
M  V30 19 1 20 17
M  V30 20 1 22 6
M  V30 21 1 22 7
M  V30 22 1 22 16
M  V30 23 1 23 15
M  V30 24 2 24 2
M  V30 25 1 24 13
M  V30 26 1 24 21
M  V30 27 1 25 1
M  V30 28 1 26 1
M  V30 29 1 3 27 CFG=1
M  V30 30 1 28 4
M  V30 31 1 29 4
M  V30 32 1 30 5
M  V30 33 1 31 5
M  V30 34 1 32 5
M  V30 35 1 33 6
M  V30 36 1 34 6
M  V30 37 1 7 35 CFG=3
M  V30 38 1 36 8
M  V30 39 1 37 8
M  V30 40 1 38 9
M  V30 41 1 39 9
M  V30 42 1 40 11
M  V30 43 1 41 12
M  V30 44 1 42 13
M  V30 45 1 43 13
M  V30 46 1 44 14
M  V30 47 1 45 14
M  V30 48 1 46 15
M  V30 49 1 16 47 CFG=3
M  V30 50 1 17 48 CFG=3
M  V30 51 1 18 49 CFG=1
M  V30 52 1 50 20
M  V30 53 1 51 20
M  V30 54 1 22 52 CFG=1
M  V30 55 1 53 23
M  V30 56 1 54 23
M  V30 57 1 55 23
M  V30 58 1 10 56 CFG=3
M  V30 END BOND
M  V30 END CTAB
M  END
>  <i_epik_Tot_Q>  (1) 
0

>  <i_epik_Tot_abs_Q>  (1) 
2

>  <i_i_glide_confnum>  (1) 
68

>  <i_i_glide_lignum>  (1) 
45

>  <i_i_glide_posenum>  (1) 
20

>  <i_i_glide_rotatable_bonds>  (1) 
7

>  <i_lp_mmshare_version>  (1) 
72125

>  <i_m_source_file_index>  (1) 
27

>  <i_f3d_flags>  (1) 
0

>  <num_sample>  (1) 
100

>  <b_lp_Chiralities_Consistent>  (1) 
1

>  <r_epik_Charging_Adjusted_Penalty>  (1) 
0.19178745009715187

>  <r_epik_Ionization_Penalty>  (1) 
0.029917907437945299

>  <r_epik_Ionization_Penalty_Charging>  (1) 
0.0050195782491265998

>  <r_epik_Ionization_Penalty_Neutral>  (1) 
0.024898329188818697

>  <r_epik_State_Penalty>  (1) 
0.18676787184802526

>  <r_glide_ring_energy>  (1) 
0

>  <r_i_docking_score>  (1) 
-3.0630702451163376

>  <r_i_glide_ecoul>  (1) 
-1.1420256632242527

>  <r_i_glide_eff_state_penalty>  (1) 
0.18676787184802526

>  <r_i_glide_einternal>  (1) 
8.6574854500587648

>  <r_i_glide_emodel>  (1) 
-11.746608323791197

>  <r_i_glide_emodel_strain>  (1) 
1.0946986986028691

>  <r_i_glide_energy>  (1) 
-12.589262551818777

>  <r_i_glide_erotb>  (1) 
0.66727664270853937

>  <r_i_glide_esite>  (1) 
-0.052789763672459904

>  <r_i_glide_evdw>  (1) 
-11.447236888594524

>  <r_i_glide_gscore>  (1) 
-3.2498381169643631

>  <r_i_glide_gscore_strain>  (1) 
0

>  <r_i_glide_hbond>  (1) 
0

>  <r_i_glide_ligand_efficiency>  (1) 
-0.12762792687984739

>  <r_i_glide_ligand_efficiency_ln>  (1) 
-0.73313326479119278

>  <r_i_glide_ligand_efficiency_sa>  (1) 
-0.36814264540337049

>  <r_i_glide_lipo>  (1) 
-1.3655650277802234

>  <r_i_glide_metal>  (1) 
-0

>  <r_i_glide_rewards>  (1) 
-1.7550942743068552

>  <r_lp_Energy>  (1) 
35.064892999999998

>  <r_lp_tautomer_probability>  (1) 
0.99990000499974985

>  <s_epik_cmdline>  (1) 
J2VwaWtfcHl0aG9uJywgJy1waHQnLCAnMS4wJywgJy1waCcsICc3LjQnLCAnLXRuJywgJzgnLCAnLW1hJywgJzUwMCcsICctaW1hZScsICc8aW5maWxlLm1hZT4nLCAnLW9tYWUnLCAnPG91dGZpbGUubWFlPic=

>  <s_epik_input>  (1) 
W0NIM11bQ0hdKFtDSDNdKVtDQEhdKFtDSF09TylbQ0gyXVtDQEBIXShbQ0gyXTEpW0NIMl1bQ0BIXTJbQ0BASF0xW0NIMl1bQ0gyXU4oW0NAQEhdMjMpW0NIMl1bQ0gyXVtDQEBIXTNbTkhdW0NIMl1DKD1PKVtPSF0=

>  <s_glide_docking_method>  (1) 
confgen

>  <s_i_glide_gridfile>  (1) 
gpcr_drd2_6luq_protein_autoprepared_prepared

>  <s_lp_Force_Field>  (1) 
S-OPLS

>  <s_lp_Variant>  (1) 
DiffSBDD_26-1

>  <s_m_source_file>  (1) 
generated_generic_title2_ligand_DiffSBDD_2026-06-23_prepared.sdf

>  <GenAI_Model>  (1) 
DiffSBDD

>  <Protein>  (1) 
generic_title2

$$$$
DiffSBDD_61
     RDKit          3D

  0  0  0  0  0  0  0  0  0  0999 V3000
M  V30 BEGIN CTAB
M  V30 COUNTS 46 47 0 0 1
M  V30 BEGIN ATOM
M  V30 1 C 7.881240 4.948679 -10.140043 0
M  V30 2 O 6.293071 4.435846 -12.845231 0 CHG=-1
M  V30 3 C 5.417906 -1.868901 -19.081098 0
M  V30 4 O 8.871998 4.912710 -12.947054 0
M  V30 5 N 9.375409 6.773243 -9.325704 0 CFG=1 CHG=1
M  V30 6 O 4.575406 -2.766454 -19.287485 0 CHG=-1
M  V30 7 C 8.061762 1.762374 -16.371614 0
M  V30 8 C 9.220895 5.683844 -10.329281 0 CFG=2
M  V30 9 P 9.329634 6.329134 -12.107853 0
M  V30 10 F 5.319477 -0.406252 -15.234500 0
M  V30 11 C 11.093371 7.987286 -8.097362 0
M  V30 12 N 5.457073 -1.303701 -17.845468 0
M  V30 13 O 7.449642 4.714571 -15.115756 0
M  V30 14 O 8.342714 7.413129 -12.298667 0 CHG=-1
M  V30 15 C 7.338478 0.352676 -18.227514 0
M  V30 16 O 7.888329 2.606536 -13.685815 0
M  V30 17 F 9.166303 8.390228 -6.839063 0
M  V30 18 P 7.485587 4.260049 -13.706401 0
M  V30 19 C 6.359510 -0.256596 -17.384985 0
M  V30 20 C 6.247736 0.161724 -16.040798 0
M  V30 21 C 9.375533 6.325023 -7.915046 0
M  V30 22 C 10.544134 7.671505 -9.496747 0
M  V30 23 C 10.053313 7.440214 -7.125823 0 CFG=1
M  V30 24 C 7.098001 1.166666 -15.533218 0
M  V30 25 O 6.201520 -1.502679 -19.977774 0
M  V30 26 C 6.973824 1.599959 -14.078488 0
M  V30 27 C 8.179531 1.357104 -17.712029 0
M  V30 28 O 10.759618 6.606402 -12.384264 0
M  V30 29 H 7.738599 4.582764 -9.124536 0
M  V30 30 H 7.033328 5.590301 -10.383082 0
M  V30 31 H 7.826527 4.071182 -10.780754 0
M  V30 32 H 8.711495 2.533201 -15.986214 0
M  V30 33 H 10.012332 4.956860 -10.171051 0
M  V30 34 H 12.037302 7.460649 -7.951690 0
M  V30 35 H 11.288405 9.050513 -7.952105 0
M  V30 36 H 4.799278 -1.653008 -17.165006 0
M  V30 37 H 7.455029 0.069010 -19.249825 0
M  V30 38 H 8.369355 6.119451 -7.548425 0
M  V30 39 H 9.961147 5.408980 -7.824703 0
M  V30 40 H 11.337121 7.196547 -10.072554 0
M  V30 41 H 10.233345 8.572689 -10.026104 0
M  V30 42 H 10.477254 7.098410 -6.181084 0
M  V30 43 H 5.948509 1.911451 -13.879631 0
M  V30 44 H 7.160036 0.729228 -13.448022 0
M  V30 45 H 8.919041 1.818123 -18.349553 0
M  V30 46 H 8.522366 7.337829 -9.435921 0
M  V30 END ATOM
M  V30 BEGIN BOND
M  V30 1 1 6 3
M  V30 2 1 8 1
M  V30 3 1 8 5
M  V30 4 1 9 4
M  V30 5 1 9 8
M  V30 6 1 12 3
M  V30 7 1 14 9
M  V30 8 1 18 2
M  V30 9 1 18 4
M  V30 10 2 18 13
M  V30 11 1 18 16
M  V30 12 1 19 12
M  V30 13 2 19 15
M  V30 14 1 20 10
M  V30 15 1 20 19
M  V30 16 1 21 5
M  V30 17 1 22 5
M  V30 18 1 22 11
M  V30 19 1 23 11
M  V30 20 1 23 17
M  V30 21 1 23 21
M  V30 22 1 24 7
M  V30 23 2 24 20
M  V30 24 2 25 3
M  V30 25 1 26 16
M  V30 26 1 26 24
M  V30 27 2 27 7
M  V30 28 1 27 15
M  V30 29 2 28 9
M  V30 30 1 29 1
M  V30 31 1 30 1
M  V30 32 1 31 1
M  V30 33 1 32 7
M  V30 34 1 8 33 CFG=1
M  V30 35 1 34 11
M  V30 36 1 35 11
M  V30 37 1 36 12
M  V30 38 1 37 15
M  V30 39 1 38 21
M  V30 40 1 39 21
M  V30 41 1 40 22
M  V30 42 1 41 22
M  V30 43 1 23 42 CFG=1
M  V30 44 1 43 26
M  V30 45 1 44 26
M  V30 46 1 45 27
M  V30 47 1 5 46 CFG=1
M  V30 END BOND
M  V30 END CTAB
M  END
>  <i_epik_Tot_Q>  (1) 
-2

>  <i_epik_Tot_abs_Q>  (1) 
4

>  <i_i_glide_confnum>  (1) 
452

>  <i_i_glide_lignum>  (1) 
97

>  <i_i_glide_posenum>  (1) 
130

>  <i_i_glide_rotatable_bonds>  (1) 
9

>  <i_lp_mmshare_version>  (1) 
72125

>  <i_m_source_file_index>  (1) 
62

>  <i_f3d_flags>  (1) 
0

>  <num_sample>  (1) 
100

>  <b_lp_Chiralities_Consistent>  (1) 
1

>  <r_epik_Charging_Adjusted_Penalty>  (1) 
0.22521151081801519

>  <r_epik_Ionization_Penalty>  (1) 
0.079461215956128484

>  <r_epik_Ionization_Penalty_Charging>  (1) 
0.079461215147622277

>  <r_epik_Ionization_Penalty_Neutral>  (1) 
8.0850620194651714e-10

>  <r_epik_State_Penalty>  (1) 
0.14575029567039291

>  <r_glide_ring_energy>  (1) 
0

>  <r_i_docking_score>  (1) 
-3.0563999965718209

>  <r_i_glide_ecoul>  (1) 
-0.3786326527715318

>  <r_i_glide_eff_state_penalty>  (1) 
0.14575029567039291

>  <r_i_glide_einternal>  (1) 
5.2922633591558803

>  <r_i_glide_emodel>  (1) 
-38.901453823533345

>  <r_i_glide_emodel_strain>  (1) 
1.2960892607201799

>  <r_i_glide_energy>  (1) 
-34.536110158689645

>  <r_i_glide_erotb>  (1) 
0.71514179105455389

>  <r_i_glide_esite>  (1) 
-0.23337000400631727

>  <r_i_glide_evdw>  (1) 
-34.157477505918116

>  <r_i_glide_gscore>  (1) 
-3.202150292242214

>  <r_i_glide_gscore_strain>  (1) 
0

>  <r_i_glide_hbond>  (1) 
-0.20000000000000001

>  <r_i_glide_ligand_efficiency>  (1) 
-0.10915714273470789

>  <r_i_glide_ligand_efficiency_ln>  (1) 
-0.70550685901211374

>  <r_i_glide_ligand_efficiency_sa>  (1) 
-0.33146537582967162

>  <r_i_glide_lipo>  (1) 
-0.79016386759494928

>  <r_i_glide_metal>  (1) 
-0

>  <r_i_glide_rewards>  (1) 
-0.92908943848386627

>  <r_lp_Energy>  (1) 
5.9120159999999995

>  <s_epik_cmdline>  (1) 
J2VwaWtfcHl0aG9uJywgJy1waHQnLCAnMS4wJywgJy1waCcsICc3LjQnLCAnLXRuJywgJzgnLCAnLW1hJywgJzUwMCcsICctaW1hZScsICc8aW5maWxlLm1hZT4nLCAnLW9tYWUnLCAnPG91dGZpbGUubWFlPic=

>  <s_epik_input>  (1) 
W0NIMl0xW0NIMl1bQ0BASF0oRilbQ0gyXU4xW0NAQEhdKFtDSDNdKVtQQF0oPU8pKFtPSF0pT1tQQEBdKD1PKShbT0hdKU9bQ0gyXWMoYzJGKVtjSF1bY0hdW2NIXWMyW05IXUMoPU8pW09IXQ==

>  <s_glide_docking_method>  (1) 
confgen

>  <s_i_glide_gridfile>  (1) 
gpcr_drd2_6luq_protein_autoprepared_prepared

>  <s_lp_Force_Field>  (1) 
S-OPLS

>  <s_lp_Variant>  (1) 
DiffSBDD_61-2

>  <s_m_source_file>  (1) 
generated_generic_title2_ligand_DiffSBDD_2026-06-23_prepared.sdf

>  <GenAI_Model>  (1) 
DiffSBDD

>  <Protein>  (1) 
generic_title2

$$$$
DiffSBDD_32
     RDKit          3D

  0  0  0  0  0  0  0  0  0  0999 V3000
M  V30 BEGIN CTAB
M  V30 COUNTS 76 79 0 0 1
M  V30 BEGIN ATOM
M  V30 1 O 7.713669 7.125085 -20.340257 0
M  V30 2 C 14.094077 5.240333 -17.117982 0 CFG=1
M  V30 3 F 3.375119 7.663476 -23.106545 0
M  V30 4 O 9.106409 3.626011 -19.626659 0
M  V30 5 O 11.799717 6.902823 -22.228006 0
M  V30 6 C 13.899655 7.632133 -18.187071 0
M  V30 7 C 6.350874 3.617385 -21.294990 0
M  V30 8 C 6.458593 5.337788 -18.837581 0 CFG=1
M  V30 9 O 6.314151 5.880941 -22.312192 0
M  V30 10 O 4.175443 5.661940 -21.501455 0
M  V30 11 C 9.242669 4.951270 -19.158347 0 CFG=1
M  V30 12 C 13.528791 7.632785 -20.767879 0
M  V30 13 C 14.651712 6.287664 -18.111240 0
M  V30 14 O 9.251869 7.190010 -20.136936 0
M  V30 15 S 5.316807 6.482089 -18.004187 0
M  V30 16 C 14.032422 8.367341 -19.516529 0
M  V30 17 C 3.131675 10.211939 -21.473352 0
M  V30 18 C 14.272736 5.639285 -15.634932 0
M  V30 19 C 7.171554 5.828801 -20.069663 0 CFG=2
M  V30 20 C 4.617451 10.004145 -21.692339 0 CFG=2
M  V30 21 O 2.656140 11.217572 -22.340252 0
M  V30 22 C 14.575759 9.594510 -19.588538 0
M  V30 23 F 6.955639 9.312433 -23.933443 0
M  V30 24 C 12.406491 3.980380 -18.732341 0
M  V30 25 O 6.674478 9.002212 -22.552117 0
M  V30 26 C 5.302434 8.794331 -22.297633 0 CFG=2
M  V30 27 C 11.430447 6.139072 -19.965707 0 CFG=1
M  V30 28 C 9.908437 5.904662 -20.200508 0 CFG=1
M  V30 29 C 4.689844 7.540768 -22.932208 0 CFG=1
M  V30 30 C 13.274664 6.664625 -15.059450 0
M  V30 31 N 5.122650 8.929572 -20.859662 0
M  V30 32 C 7.934802 5.572516 -18.752752 0 CFG=1
M  V30 33 C 12.661043 4.721001 -17.396397 0
M  V30 34 C 5.020051 6.255882 -22.171957 0
M  V30 35 C 6.987686 5.028744 -21.381994 0 CFG=1
M  V30 36 C 12.258044 4.816622 -20.030740 0
M  V30 37 C 12.014590 7.270502 -20.877835 0 CFG=2
M  V30 38 H 14.743042 4.372966 -17.247263 0
M  V30 39 H 8.813546 3.081147 -18.911365 0
M  V30 40 H 10.879413 6.997232 -22.424822 0
M  V30 41 H 12.855397 7.548398 -17.913949 0
M  V30 42 H 14.312938 8.279965 -17.414451 0
M  V30 43 H 6.961428 2.923283 -20.722709 0
M  V30 44 H 5.364622 3.615650 -20.834067 0
M  V30 45 H 6.241808 3.189298 -22.291581 0
M  V30 46 H 6.153742 4.298118 -18.754565 0
M  V30 47 H 9.842426 4.918193 -18.250258 0
M  V30 48 H 13.740124 8.301566 -21.604002 0
M  V30 49 H 14.173589 6.783513 -20.974452 0
M  V30 50 H 15.691331 6.497861 -17.856599 0
M  V30 51 H 14.718847 5.819962 -19.086737 0
M  V30 52 H 5.647636 6.169478 -16.747888 0
M  V30 53 H 2.962382 10.530983 -20.444102 0
M  V30 54 H 2.575548 9.290519 -21.618941 0
M  V30 55 H 14.178324 4.726332 -15.048956 0
M  V30 56 H 15.291399 5.990154 -15.466359 0
M  V30 57 H 5.229055 10.893939 -21.586796 0
M  V30 58 H 2.732164 10.910179 -23.231100 0
M  V30 59 H 14.670235 10.109014 -20.533899 0
M  V30 60 H 14.929182 10.100320 -18.701762 0
M  V30 61 H 11.506694 3.381490 -18.607286 0
M  V30 62 H 13.194724 3.241769 -18.882039 0
M  V30 63 H 11.465425 6.543221 -18.968876 0
M  V30 64 H 9.783636 5.513918 -21.207486 0
M  V30 65 H 5.098762 7.443191 -23.936402 0
M  V30 66 H 13.433379 6.791288 -13.988905 0
M  V30 67 H 13.376295 7.648006 -15.510921 0
M  V30 68 H 12.240170 6.345010 -15.178256 0
M  V30 69 H 4.356864 8.335445 -20.555935 0
M  V30 70 H 8.125471 6.408039 -18.080831 0
M  V30 71 H 11.926425 5.503296 -17.233639 0
M  V30 72 H 12.437194 3.999499 -16.609328 0
M  V30 73 H 7.967094 4.878172 -21.824936 0
M  V30 74 H 11.829752 4.177617 -20.804244 0
M  V30 75 H 13.257734 4.997827 -20.404957 0
M  V30 76 H 11.456501 8.192238 -20.706689 0
M  V30 END ATOM
M  V30 BEGIN BOND
M  V30 1 1 11 4
M  V30 2 1 13 2
M  V30 3 1 13 6
M  V30 4 1 14 1
M  V30 5 1 15 8
M  V30 6 1 16 6
M  V30 7 1 16 12
M  V30 8 1 18 2
M  V30 9 1 19 1 CFG=3
M  V30 10 1 19 8
M  V30 11 1 20 17
M  V30 12 1 21 17
M  V30 13 2 22 16
M  V30 14 1 25 23
M  V30 15 1 26 20
M  V30 16 1 26 25 CFG=1
M  V30 17 1 28 11
M  V30 18 1 28 14
M  V30 19 1 28 27
M  V30 20 1 29 3
M  V30 21 1 29 26
M  V30 22 1 30 18
M  V30 23 1 31 20
M  V30 24 1 31 26
M  V30 25 1 32 8
M  V30 26 1 32 11
M  V30 27 1 32 19
M  V30 28 1 33 2
M  V30 29 1 33 24
M  V30 30 1 34 9
M  V30 31 2 34 10
M  V30 32 1 34 29
M  V30 33 1 35 7
M  V30 34 1 35 9
M  V30 35 1 35 19
M  V30 36 1 36 24
M  V30 37 1 36 27
M  V30 38 1 37 5
M  V30 39 1 37 12
M  V30 40 1 37 27
M  V30 41 1 2 38 CFG=1
M  V30 42 1 39 4
M  V30 43 1 40 5
M  V30 44 1 41 6
M  V30 45 1 42 6
M  V30 46 1 43 7
M  V30 47 1 44 7
M  V30 48 1 45 7
M  V30 49 1 8 46 CFG=3
M  V30 50 1 11 47 CFG=1
M  V30 51 1 48 12
M  V30 52 1 49 12
M  V30 53 1 50 13
M  V30 54 1 51 13
M  V30 55 1 52 15
M  V30 56 1 53 17
M  V30 57 1 54 17
M  V30 58 1 55 18
M  V30 59 1 56 18
M  V30 60 1 20 57 CFG=1
M  V30 61 1 58 21
M  V30 62 1 59 22
M  V30 63 1 60 22
M  V30 64 1 61 24
M  V30 65 1 62 24
M  V30 66 1 27 63 CFG=1
M  V30 67 1 28 64 CFG=3
M  V30 68 1 29 65 CFG=3
M  V30 69 1 66 30
M  V30 70 1 67 30
M  V30 71 1 68 30
M  V30 72 1 69 31
M  V30 73 1 32 70 CFG=1
M  V30 74 1 71 33
M  V30 75 1 72 33
M  V30 76 1 35 73 CFG=3
M  V30 77 1 74 36
M  V30 78 1 75 36
M  V30 79 1 37 76 CFG=1
M  V30 END BOND
M  V30 END CTAB
M  END
>  <i_epik_Tot_Q>  (1) 
0

>  <i_epik_Tot_abs_Q>  (1) 
0

>  <i_i_glide_confnum>  (1) 
102

>  <i_i_glide_lignum>  (1) 
54

>  <i_i_glide_posenum>  (1) 
62

>  <i_i_glide_rotatable_bonds>  (1) 
13

>  <i_lp_mmshare_version>  (1) 
72125

>  <i_m_source_file_index>  (1) 
33

>  <i_f3d_flags>  (1) 
0

>  <num_sample>  (1) 
100

>  <b_lp_Chiralities_Consistent>  (1) 
1

>  <r_epik_Charging_Adjusted_Penalty>  (1) 
0.093290770244600377

>  <r_epik_Ionization_Penalty>  (1) 
0.093291904882598309

>  <r_epik_Ionization_Penalty_Charging>  (1) 
0

>  <r_epik_Ionization_Penalty_Neutral>  (1) 
0.093291904882598309

>  <r_epik_State_Penalty>  (1) 
0.093290770244600377

>  <r_glide_ring_energy>  (1) 
0

>  <r_i_docking_score>  (1) 
-3.0487563813667964

>  <r_i_glide_ecoul>  (1) 
-2.0748113545184372

>  <r_i_glide_eff_state_penalty>  (1) 
0.093290770244600377

>  <r_i_glide_einternal>  (1) 
9.781856042188128

>  <r_i_glide_emodel>  (1) 
-33.747157191552219

>  <r_i_glide_emodel_strain>  (1) 
0.24137187794016768

>  <r_i_glide_energy>  (1) 
-33.769112466829903

>  <r_i_glide_erotb>  (1) 
0.4066656280010113

>  <r_i_glide_esite>  (1) 
-0.017655716379899499

>  <r_i_glide_evdw>  (1) 
-31.694301112311464

>  <r_i_glide_gscore>  (1) 
-3.1420471516113966

>  <r_i_glide_gscore_strain>  (1) 
0

>  <r_i_glide_hbond>  (1) 
-0.008943244737508526

>  <r_i_glide_ligand_efficiency>  (1) 
-0.08239882111802152

>  <r_i_glide_ligand_efficiency_ln>  (1) 
-0.66120378612822139

>  <r_i_glide_ligand_efficiency_sa>  (1) 
-0.27457115227933737

>  <r_i_glide_lipo>  (1) 
-1.2048232560088619

>  <r_i_glide_metal>  (1) 
-0

>  <r_i_glide_rewards>  (1) 
-0.42135380369279907

>  <r_lp_Energy>  (1) 
49.816001

>  <s_epik_Chemistry_Notes>  (1) 
This compound has an ester and may undergo hydrolysis at high or low pH.

>  <s_epik_cmdline>  (1) 
J2VwaWtfcHl0aG9uJywgJy1waHQnLCAnMS4wJywgJy1waCcsICc3LjQnLCAnLXRuJywgJzgnLCAnLW1hJywgJzUwMCcsICctaW1hZScsICc8aW5maWxlLm1hZT4nLCAnLW9tYWUnLCAnPG91dGZpbGUubWFlPic=

>  <s_epik_input>  (1) 
W0NIM11bQ0gyXVtDQEBIXTFbQ0gyXVtDSDJdQyg9W0NIMl0pW0NIMl1bQ0BASF0oW09IXSlbQ0BIXShbQ0gyXVtDSDJdW0NIMl0xKVtDQEhdKE9PMilbQ0BIXShbT0hdKVtDQEhdKFtDQEhdM1tTSF0pW0NAXTIzW0NAQEhdKFtDSDNdKU9DKD1PKVtDQEBIXShGKUM0KE9GKVtDQEhdKFtOSF00KVtDSDJdW09IXQ==

>  <s_glide_docking_method>  (1) 
confgen

>  <s_i_glide_gridfile>  (1) 
gpcr_drd2_6luq_protein_autoprepared_prepared

>  <s_lp_Force_Field>  (1) 
S-OPLS

>  <s_lp_Variant>  (1) 
DiffSBDD_32-1

>  <s_m_source_file>  (1) 
generated_generic_title2_ligand_DiffSBDD_2026-06-23_prepared.sdf

>  <GenAI_Model>  (1) 
DiffSBDD

>  <Protein>  (1) 
generic_title2

$$$$
DiffSBDD_82
     RDKit          3D

  0  0  0  0  0  0  0  0  0  0999 V3000
M  V30 BEGIN CTAB
M  V30 COUNTS 74 80 0 0 1
M  V30 BEGIN ATOM
M  V30 1 N 9.099149 4.053763 -16.744142 0
M  V30 2 C 8.739182 5.114368 -14.563298 0
M  V30 3 N 7.269848 1.968839 -16.099816 0
M  V30 4 O 7.342226 -2.926952 -18.385285 0
M  V30 5 O 6.941816 -0.167293 -20.673546 0
M  V30 6 C 9.033763 5.707831 -10.803770 0
M  V30 7 C 8.337548 4.800484 -13.103147 0 CFG=1
M  V30 8 C 8.415456 3.990295 -15.526638 0
M  V30 9 C 9.658906 1.695308 -18.373518 0
M  V30 10 N 9.288674 3.006242 -18.923282 0
M  V30 11 C 6.588244 0.137125 -18.358363 0
M  V30 12 C 8.455073 3.823265 -18.030965 0 CFG=1
M  V30 13 C 6.397761 0.835662 -15.865846 0
M  V30 14 C 9.097806 4.371076 -10.199189 0
M  V30 15 C 9.388341 8.033304 -10.394295 0
M  V30 16 C 6.817495 2.939537 -13.867499 0
M  V30 17 C 8.643663 2.737366 -20.206663 0
M  V30 18 C 8.963594 5.181572 -17.639697 0 CFG=1
M  V30 19 C 8.975423 8.341294 -11.708200 0
M  V30 20 O 9.770300 9.010173 -9.538749 0
M  V30 21 C 6.898478 -2.167255 -19.489231 0
M  V30 22 C 8.651378 5.956590 -12.141019 0
M  V30 23 C 8.589262 7.299187 -12.581889 0
M  V30 24 C 8.932488 -0.618711 -19.377842 0
M  V30 25 C 9.439414 1.569772 -20.774474 0
M  V30 26 C 7.364480 -0.688483 -19.427755 0 CFG=1
M  V30 27 O 5.772203 -1.320448 -16.645664 0
M  V30 28 N 9.680304 6.300250 -8.694878 0
M  V30 29 C 9.735108 0.712657 -19.548964 0 CFG=1
M  V30 30 C 9.375425 6.704550 -9.972186 0
M  V30 31 C 7.803059 5.077455 -18.604037 0
M  V30 32 O 10.966220 6.688837 -8.284502 0
M  V30 33 C 9.624157 4.812943 -8.738856 0
M  V30 34 C 6.715062 -0.293496 -16.869979 0 CFG=1
M  V30 35 C 6.902213 4.260497 -13.065992 0
M  V30 36 C 7.547227 3.000314 -15.216200 0
M  V30 37 H 8.189389 5.973103 -14.943636 0
M  V30 38 H 9.802449 5.353230 -14.620447 0
M  V30 39 H 6.885957 -2.603893 -17.614463 0
M  V30 40 H 6.007104 -0.288780 -20.758823 0
M  V30 41 H 8.989957 3.979475 -12.805014 0
M  V30 42 H 8.954344 1.319177 -17.647934 0
M  V30 43 H 10.615435 1.777684 -17.855770 0
M  V30 44 H 5.526493 0.150952 -18.612132 0
M  V30 45 H 6.887209 1.174140 -18.469182 0
M  V30 46 H 6.501194 0.473129 -14.842636 0
M  V30 47 H 5.375435 1.165126 -16.005951 0
M  V30 48 H 8.079447 3.990220 -10.170104 0
M  V30 49 H 9.775360 3.690260 -10.712133 0
M  V30 50 H 5.775440 2.656897 -13.984991 0
M  V30 51 H 7.600758 2.455460 -20.066803 0
M  V30 52 H 8.672375 3.603242 -20.867984 0
M  V30 53 H 9.938696 5.463005 -18.032978 0
M  V30 54 H 8.956329 9.362247 -12.047389 0
M  V30 55 H 9.975600 8.595955 -8.712837 0
M  V30 56 H 5.810131 -2.232308 -19.538039 0
M  V30 57 H 7.280613 -2.650468 -20.389646 0
M  V30 58 H 8.275795 7.532778 -13.584934 0
M  V30 59 H 9.265468 -1.076749 -18.446246 0
M  V30 60 H 9.301812 -1.290281 -20.154090 0
M  V30 61 H 10.375403 1.948575 -21.187972 0
M  V30 62 H 8.932155 1.044164 -21.581659 0
M  V30 63 H 5.682368 -1.465810 -15.713867 0
M  V30 64 H 10.779139 0.406481 -19.630936 0
M  V30 65 H 7.992832 5.374980 -19.632698 0
M  V30 66 H 6.819694 5.338499 -18.218573 0
M  V30 67 H 10.900533 6.821757 -7.349869 0
M  V30 68 H 10.575416 4.354515 -8.487685 0
M  V30 69 H 8.912982 4.476190 -7.984771 0
M  V30 70 H 7.715634 -0.675209 -16.663772 0
M  V30 71 H 6.582129 4.082295 -12.039198 0
M  V30 72 H 6.218833 5.002904 -13.480004 0
M  V30 73 H 7.286860 2.148061 -13.281288 0
M  V30 74 H 7.731747 1.988540 -16.997024 0
M  V30 END ATOM
M  V30 BEGIN BOND
M  V30 1 1 7 2
M  V30 2 1 8 1
M  V30 3 1 8 2
M  V30 4 1 10 9
M  V30 5 1 12 1
M  V30 6 1 12 10
M  V30 7 1 13 3
M  V30 8 1 14 6
M  V30 9 1 17 10
M  V30 10 1 18 1
M  V30 11 1 18 12
M  V30 12 1 19 15
M  V30 13 1 20 15
M  V30 14 1 21 4
M  V30 15 2 22 6
M  V30 16 1 22 7
M  V30 17 2 23 19
M  V30 18 1 23 22
M  V30 19 1 25 17
M  V30 20 1 26 5 CFG=3
M  V30 21 1 26 11
M  V30 22 1 26 21
M  V30 23 1 26 24
M  V30 24 1 29 9
M  V30 25 1 29 24
M  V30 26 1 29 25
M  V30 27 1 30 6
M  V30 28 2 30 15
M  V30 29 1 30 28
M  V30 30 1 12 31 CFG=1
M  V30 31 1 31 18
M  V30 32 1 32 28
M  V30 33 1 33 14
M  V30 34 1 33 28
M  V30 35 1 34 11
M  V30 36 1 34 13
M  V30 37 1 34 27
M  V30 38 1 35 7
M  V30 39 1 35 16
M  V30 40 1 36 3
M  V30 41 2 36 8
M  V30 42 1 36 16
M  V30 43 1 37 2
M  V30 44 1 38 2
M  V30 45 1 39 4
M  V30 46 1 40 5
M  V30 47 1 7 41 CFG=1
M  V30 48 1 42 9
M  V30 49 1 43 9
M  V30 50 1 44 11
M  V30 51 1 45 11
M  V30 52 1 46 13
M  V30 53 1 47 13
M  V30 54 1 48 14
M  V30 55 1 49 14
M  V30 56 1 50 16
M  V30 57 1 51 17
M  V30 58 1 52 17
M  V30 59 1 18 53 CFG=3
M  V30 60 1 54 19
M  V30 61 1 55 20
M  V30 62 1 56 21
M  V30 63 1 57 21
M  V30 64 1 58 23
M  V30 65 1 59 24
M  V30 66 1 60 24
M  V30 67 1 61 25
M  V30 68 1 62 25
M  V30 69 1 63 27
M  V30 70 1 29 64 CFG=3
M  V30 71 1 65 31
M  V30 72 1 66 31
M  V30 73 1 67 32
M  V30 74 1 68 33
M  V30 75 1 69 33
M  V30 76 1 34 70 CFG=3
M  V30 77 1 71 35
M  V30 78 1 72 35
M  V30 79 1 73 16
M  V30 80 1 74 3
M  V30 END BOND
M  V30 END CTAB
M  END
>  <i_epik_Tot_Q>  (1) 
0

>  <i_epik_Tot_abs_Q>  (1) 
0

>  <i_i_glide_confnum>  (1) 
9

>  <i_i_glide_lignum>  (1) 
146

>  <i_i_glide_posenum>  (1) 
243

>  <i_i_glide_rotatable_bonds>  (1) 
7

>  <i_lp_mmshare_version>  (1) 
72125

>  <i_m_source_file_index>  (1) 
83

>  <i_f3d_flags>  (1) 
0

>  <num_sample>  (1) 
100

>  <b_lp_Chiralities_Consistent>  (1) 
1

>  <r_epik_Charging_Adjusted_Penalty>  (1) 
8.6093729987814029e-06

>  <r_epik_Ionization_Penalty>  (1) 
4.205837022639483

>  <r_epik_Ionization_Penalty_Charging>  (1) 
8.6093729987814029e-06

>  <r_epik_Ionization_Penalty_Neutral>  (1) 
4.2058284132664845

>  <r_epik_State_Penalty>  (1) 
-0

>  <r_glide_ring_energy>  (1) 
0

>  <r_i_docking_score>  (1) 
-3.0196290414256173

>  <r_i_glide_ecoul>  (1) 
-1.0769603642588532

>  <r_i_glide_eff_state_penalty>  (1) 
-0

>  <r_i_glide_einternal>  (1) 
7.3411718249277795

>  <r_i_glide_emodel>  (1) 
-17.699738993198956

>  <r_i_glide_emodel_strain>  (1) 
0.26312433868619678

>  <r_i_glide_energy>  (1) 
-21.091615675070447

>  <r_i_glide_erotb>  (1) 
0.16415830312656554

>  <r_i_glide_esite>  (1) 
-0.06512924862556406

>  <r_i_glide_evdw>  (1) 
-20.014655310811595

>  <r_i_glide_gscore>  (1) 
-3.0196290414256173

>  <r_i_glide_gscore_strain>  (1) 
0

>  <r_i_glide_hbond>  (1) 
0

>  <r_i_glide_ligand_efficiency>  (1) 
-0.083878584484044921

>  <r_i_glide_ligand_efficiency_ln>  (1) 
-0.65880147589021076

>  <r_i_glide_ligand_efficiency_sa>  (1) 
-0.27696098370657801

>  <r_i_glide_lipo>  (1) 
-1.2041828256218854

>  <r_i_glide_metal>  (1) 
-0

>  <r_i_glide_rewards>  (1) 
-0.7521984501253256

>  <r_lp_Energy>  (1) 
33.143476

>  <r_lp_tautomer_probability>  (1) 
1

>  <s_epik_Chemistry_Notes>  (1) 
This compound has an imine and may undergo hydrolysis. This compound has a N-S or N-O group and may undergo hydrolysis at high or low pH.

>  <s_epik_cmdline>  (1) 
J2VwaWtfcHl0aG9uJywgJy1waHQnLCAnMS4wJywgJy1waCcsICc3LjQnLCAnLXRuJywgJzgnLCAnLW1hJywgJzUwMCcsICctaW1hZScsICc8aW5maWxlLm1hZT4nLCAnLW9tYWUnLCAnPG91dGZpbGUubWFlPic=

>  <s_epik_input>  (1) 
W0NIMl0xW0NIMl1OMltDSDJdW0NASF0xW0NIMl1bQ0BAXShbT0hdKShbQ0gyXVtPSF0pW0NIMl1bQ0BIXShbT0hdKVtDSDJdL049QyhcW0NAQEhdM04oQzI0NSlbQ0BASF00W0NIMl01KVtDSDJdW0NIMl1bQ0BASF0oW0NIMl0zKWM2W2NIXVtjSF1jKFtPSF0pYyhjNjcpTihbT0hdKVtDSDJdW0NIMl03

>  <s_glide_docking_method>  (1) 
confgen

>  <s_i_glide_gridfile>  (1) 
gpcr_drd2_6luq_protein_autoprepared_prepared

>  <s_lp_Force_Field>  (1) 
S-OPLS

>  <s_lp_Variant>  (1) 
DiffSBDD_82-1

>  <s_m_source_file>  (1) 
generated_generic_title2_ligand_DiffSBDD_2026-06-23_prepared.sdf

>  <GenAI_Model>  (1) 
DiffSBDD

>  <Protein>  (1) 
generic_title2

$$$$
DiffSBDD_61
     RDKit          3D

  0  0  0  0  0  0  0  0  0  0999 V3000
M  V30 BEGIN CTAB
M  V30 COUNTS 45 46 0 0 1
M  V30 BEGIN ATOM
M  V30 1 C 5.775406 6.611969 -14.190335 0
M  V30 2 O 8.435000 7.360851 -12.136665 0 CHG=-1
M  V30 3 C 11.705399 9.178271 -5.077455 0
M  V30 4 O 8.606456 5.224583 -13.536391 0
M  V30 5 N 5.902849 6.210930 -16.590238 0
M  V30 6 O 11.775405 9.127932 -3.831676 0 CHG=-1
M  V30 7 C 10.806313 7.496400 -9.950349 0
M  V30 8 C 6.723136 6.339416 -15.371591 0 CFG=2
M  V30 9 P 7.830530 4.809118 -15.007333 0
M  V30 10 F 9.562666 6.095813 -6.784936 0
M  V30 11 C 4.730635 7.183790 -18.400677 0
M  V30 12 N 11.090939 8.153341 -5.728315 0
M  V30 13 O 6.903900 5.362595 -11.586050 0
M  V30 14 O 6.975365 3.620873 -14.786040 0 CHG=-1
M  V30 15 C 11.706283 8.790239 -8.095213 0
M  V30 16 O 9.375406 5.276198 -10.952354 0
M  V30 17 F 6.257143 6.443868 -20.055445 0
M  V30 18 P 8.215377 5.898445 -12.020222 0
M  V30 19 C 11.008895 7.962426 -7.170161 0
M  V30 20 C 10.220997 6.897429 -7.655255 0
M  V30 21 C 6.665506 5.879702 -17.789579 0
M  V30 22 C 5.200077 7.436158 -16.971772 0
M  V30 23 C 5.658678 6.092693 -18.917193 0 CFG=1
M  V30 24 C 10.120934 6.661959 -9.042858 0
M  V30 25 O 12.175351 10.140328 -5.709421 0
M  V30 26 C 9.279288 5.499345 -9.555320 0
M  V30 27 C 11.597061 8.552782 -9.475755 0
M  V30 28 O 8.880777 4.742528 -16.052947 0
M  V30 29 H 4.975420 7.310178 -14.412569 0
M  V30 30 H 5.319304 5.693342 -13.819580 0
M  V30 31 H 6.287240 7.103178 -13.373876 0
M  V30 32 H 10.730946 7.318968 -11.012647 0
M  V30 33 H 7.375410 7.200977 -15.487064 0
M  V30 34 H 3.699703 6.829379 -18.385648 0
M  V30 35 H 4.771284 8.093561 -19.000646 0
M  V30 36 H 10.670541 7.434013 -5.160150 0
M  V30 37 H 12.321319 9.589704 -7.767165 0
M  V30 38 H 7.510586 6.559535 -17.902341 0
M  V30 39 H 7.042009 4.856485 -17.779856 0
M  V30 40 H 4.344393 7.663580 -16.338724 0
M  V30 41 H 5.877837 8.288202 -16.935050 0
M  V30 42 H 5.102136 5.174655 -19.107737 0
M  V30 43 H 9.652912 4.595011 -9.071491 0
M  V30 44 H 8.245364 5.603250 -9.231887 0
M  V30 45 H 12.127069 9.184306 -10.173366 0
M  V30 END ATOM
M  V30 BEGIN BOND
M  V30 1 1 6 3
M  V30 2 1 8 1
M  V30 3 1 8 5
M  V30 4 1 9 4
M  V30 5 1 9 8
M  V30 6 1 12 3
M  V30 7 1 14 9
M  V30 8 1 18 2
M  V30 9 1 18 4
M  V30 10 2 18 13
M  V30 11 1 18 16
M  V30 12 1 19 12
M  V30 13 2 19 15
M  V30 14 1 20 10
M  V30 15 1 20 19
M  V30 16 1 21 5
M  V30 17 1 22 5
M  V30 18 1 22 11
M  V30 19 1 23 11
M  V30 20 1 23 17
M  V30 21 1 23 21
M  V30 22 1 24 7
M  V30 23 2 24 20
M  V30 24 2 25 3
M  V30 25 1 26 16
M  V30 26 1 26 24
M  V30 27 2 27 7
M  V30 28 1 27 15
M  V30 29 2 28 9
M  V30 30 1 29 1
M  V30 31 1 30 1
M  V30 32 1 31 1
M  V30 33 1 32 7
M  V30 34 1 8 33 CFG=3
M  V30 35 1 34 11
M  V30 36 1 35 11
M  V30 37 1 36 12
M  V30 38 1 37 15
M  V30 39 1 38 21
M  V30 40 1 39 21
M  V30 41 1 40 22
M  V30 42 1 41 22
M  V30 43 1 23 42 CFG=3
M  V30 44 1 43 26
M  V30 45 1 44 26
M  V30 46 1 45 27
M  V30 END BOND
M  V30 END CTAB
M  END
>  <i_epik_Tot_Q>  (1) 
-3

>  <i_epik_Tot_abs_Q>  (1) 
3

>  <i_i_glide_confnum>  (1) 
617

>  <i_i_glide_lignum>  (1) 
98

>  <i_i_glide_posenum>  (1) 
302

>  <i_i_glide_rotatable_bonds>  (1) 
9

>  <i_lp_mmshare_version>  (1) 
72125

>  <i_m_source_file_index>  (1) 
62

>  <i_f3d_flags>  (1) 
0

>  <num_sample>  (1) 
100

>  <b_lp_Chiralities_Consistent>  (1) 
1

>  <r_epik_Charging_Adjusted_Penalty>  (1) 
1.3021205518869732

>  <r_epik_Ionization_Penalty>  (1) 
1.2351473723199373

>  <r_epik_Ionization_Penalty_Charging>  (1) 
0.00073408944429159239

>  <r_epik_Ionization_Penalty_Neutral>  (1) 
1.2344132828756458

>  <r_epik_State_Penalty>  (1) 
1.3013864624426816

>  <r_glide_ring_energy>  (1) 
0

>  <r_i_docking_score>  (1) 
-3.015946983729334

>  <r_i_glide_ecoul>  (1) 
2.1408437593219283

>  <r_i_glide_eff_state_penalty>  (1) 
1.3013864624426816

>  <r_i_glide_einternal>  (1) 
3.8355072450925327

>  <r_i_glide_emodel>  (1) 
-40.02453790927752

>  <r_i_glide_emodel_strain>  (1) 
1.4086907231735069

>  <r_i_glide_energy>  (1) 
-35.94778210570469

>  <r_i_glide_erotb>  (1) 
0.71811031056760655

>  <r_i_glide_esite>  (1) 
-0.049000369868901272

>  <r_i_glide_evdw>  (1) 
-38.088625865026614

>  <r_i_glide_gscore>  (1) 
-4.3173334461720154

>  <r_i_glide_gscore_strain>  (1) 
0

>  <r_i_glide_hbond>  (1) 
0

>  <r_i_glide_ligand_efficiency>  (1) 
-0.10771239227604765

>  <r_i_glide_ligand_efficiency_ln>  (1) 
-0.69616911589599961

>  <r_i_glide_ligand_efficiency_sa>  (1) 
-0.32707826251979161

>  <r_i_glide_lipo>  (1) 
-1.9121588521758013

>  <r_i_glide_metal>  (1) 
-0

>  <r_i_glide_rewards>  (1) 
-1.4909798053418781

>  <r_lp_Energy>  (1) 
20.353621999999998

>  <s_epik_cmdline>  (1) 
J2VwaWtfcHl0aG9uJywgJy1waHQnLCAnMS4wJywgJy1waCcsICc3LjQnLCAnLXRuJywgJzgnLCAnLW1hJywgJzUwMCcsICctaW1hZScsICc8aW5maWxlLm1hZT4nLCAnLW9tYWUnLCAnPG91dGZpbGUubWFlPic=

>  <s_epik_input>  (1) 
W0NIMl0xW0NIMl1bQ0BASF0oRilbQ0gyXU4xW0NAQEhdKFtDSDNdKVtQQF0oPU8pKFtPSF0pT1tQQEBdKD1PKShbT0hdKU9bQ0gyXWMoYzJGKVtjSF1bY0hdW2NIXWMyW05IXUMoPU8pW09IXQ==

>  <s_glide_docking_method>  (1) 
confgen

>  <s_i_glide_gridfile>  (1) 
gpcr_drd2_6luq_protein_autoprepared_prepared

>  <s_lp_Force_Field>  (1) 
S-OPLS

>  <s_lp_Variant>  (1) 
DiffSBDD_61-3

>  <s_m_source_file>  (1) 
generated_generic_title2_ligand_DiffSBDD_2026-06-23_prepared.sdf

>  <GenAI_Model>  (1) 
DiffSBDD

>  <Protein>  (1) 
generic_title2

$$$$
DiffSBDD_80
     RDKit          3D

  0  0  0  0  0  0  0  0  0  0999 V3000
M  V30 BEGIN CTAB
M  V30 COUNTS 80 86 0 0 1
M  V30 BEGIN ATOM
M  V30 1 C 10.751363 4.755102 -17.856007 0
M  V30 2 C 18.225023 8.679824 -17.226659 0
M  V30 3 C 13.508375 7.123479 -20.146491 0
M  V30 4 O 18.469100 6.290850 -17.437835 0
M  V30 5 N 6.979808 4.770217 -16.367218 0 CHG=1
M  V30 6 C 13.105182 8.397008 -22.582577 0
M  V30 7 C 12.265990 6.982337 -20.796749 0
M  V30 8 C 18.271797 7.365013 -18.003903 0
M  V30 9 C 9.848176 6.621640 -20.232600 0
M  V30 10 C 7.621493 3.420316 -18.825884 0 CFG=2
M  V30 11 C 6.943939 5.619683 -17.564308 0 CFG=2
M  V30 12 C 16.915969 8.390630 -19.936557 0 CFG=1
M  V30 13 C 9.718338 2.336727 -17.775899 0 CFG=2
M  V30 14 O 11.996479 2.721475 -18.393639 0
M  V30 15 C 17.008281 9.744066 -19.198569 0
M  V30 16 C 18.072115 7.444723 -19.520165 0
M  V30 17 N 13.947565 6.637754 -18.985368 0
M  V30 18 O 10.985345 0.307983 -18.393358 0
M  V30 19 C 8.092260 3.792458 -16.286153 0
M  V30 20 C 12.065495 7.624881 -22.032504 0
M  V30 21 O 7.414647 1.756349 -17.231421 0
M  V30 22 C 11.599576 5.864862 -18.529667 0 CFG=2
M  V30 23 C 13.688867 4.387103 -18.040445 0
M  V30 24 C 11.284314 6.096316 -20.035206 0 CFG=2
M  V30 25 C 14.340045 8.511300 -21.897405 0
M  V30 26 O 5.781758 6.197482 -17.461924 0 CHG=-1
M  V30 27 C 15.543646 7.747042 -19.788585 0
M  V30 28 C 8.241553 2.862496 -17.545146 0 CFG=1
M  V30 29 C 14.465360 7.822959 -20.664335 0
M  V30 30 N 15.309689 7.007394 -18.669334 0
M  V30 31 C 13.223018 6.439119 -16.696133 0
M  V30 32 C 17.060951 9.578617 -17.667423 0
M  V30 33 C 6.943964 4.774808 -18.826079 0 CFG=2
M  V30 34 C 10.712800 3.338756 -18.480709 0 CFG=2
M  V30 35 C 13.098513 5.821724 -18.118157 0 CFG=1
M  V30 36 C 15.457962 9.351436 -22.486146 0
M  V30 37 O 6.190840 3.564177 -18.784785 0
M  V30 38 C 9.746517 0.970284 -18.539854 0
M  V30 39 C 13.107857 3.354223 -19.008997 0
M  V30 40 H 9.744781 5.142935 -17.864246 0
M  V30 41 H 11.029017 4.661498 -16.807976 0
M  V30 42 H 18.166466 8.470596 -16.159498 0
M  V30 43 H 17.921682 6.446524 -19.932718 0
M  V30 44 H 19.165057 9.202159 -17.401573 0
M  V30 45 H 6.104718 4.271331 -16.385012 0
M  V30 46 H 12.960018 8.901118 -23.527311 0
M  V30 47 H 9.565914 6.667525 -21.283851 0
M  V30 48 H 9.113429 5.979312 -19.762306 0
M  V30 49 H 9.735119 7.620833 -19.812872 0
M  V30 50 H 7.971983 3.004626 -19.768258 0
M  V30 51 H 7.858675 6.207086 -17.585133 0
M  V30 52 H 17.160192 8.556742 -20.973531 0
M  V30 53 H 10.117289 2.130052 -16.784139 0
M  V30 54 H 17.911231 10.264259 -19.521709 0
M  V30 55 H 16.170692 10.385024 -19.478050 0
M  V30 56 H 19.008309 7.817279 -19.936105 0
M  V30 57 H 11.663628 0.968794 -18.479387 0
M  V30 58 H 7.949756 3.192499 -15.384636 0
M  V30 59 H 8.988524 4.356051 -16.058628 0
M  V30 60 H 11.126232 7.530031 -22.555690 0
M  V30 61 H 6.538532 1.950646 -17.539428 0
M  V30 62 H 11.243582 6.790081 -18.079081 0
M  V30 63 H 13.567186 3.987473 -17.032250 0
M  V30 64 H 14.769967 4.426281 -18.179028 0
M  V30 65 H 11.335091 5.145612 -20.559769 0
M  V30 66 H 12.593650 5.934571 -15.963812 0
M  V30 67 H 14.243748 6.381020 -16.315239 0
M  V30 68 H 12.941920 7.494105 -16.694015 0
M  V30 69 H 16.116299 9.175479 -17.305045 0
M  V30 70 H 17.166246 10.549759 -17.183950 0
M  V30 71 H 6.861669 5.310658 -19.769356 0
M  V30 72 H 10.430812 3.408645 -19.530592 0
M  V30 73 H 15.078172 9.930498 -23.328286 0
M  V30 74 H 15.841347 10.083316 -21.776795 0
M  V30 75 H 16.256885 8.724330 -22.880715 0
M  V30 76 H 9.537231 1.112584 -19.600543 0
M  V30 77 H 9.014999 0.253061 -18.171223 0
M  V30 78 H 13.855784 2.574857 -19.156300 0
M  V30 79 H 12.896310 3.749502 -19.999887 0
M  V30 80 H 6.976948 5.378999 -15.563159 0
M  V30 END ATOM
M  V30 BEGIN BOND
M  V30 1 2 7 3
M  V30 2 1 8 2
M  V30 3 2 8 4
M  V30 4 1 11 5
M  V30 5 1 15 12
M  V30 6 1 16 8
M  V30 7 1 16 12
M  V30 8 1 17 3
M  V30 9 1 19 5
M  V30 10 2 20 6
M  V30 11 1 20 7
M  V30 12 1 22 1
M  V30 13 1 24 7
M  V30 14 1 24 9
M  V30 15 1 24 22
M  V30 16 1 25 6
M  V30 17 1 26 11
M  V30 18 1 27 12
M  V30 19 1 28 10
M  V30 20 1 28 13
M  V30 21 1 28 19
M  V30 22 1 28 21 CFG=1
M  V30 23 1 29 3
M  V30 24 2 29 25
M  V30 25 1 29 27
M  V30 26 1 30 17
M  V30 27 2 30 27
M  V30 28 1 32 2
M  V30 29 1 32 15
M  V30 30 1 33 10
M  V30 31 1 33 11
M  V30 32 1 34 1
M  V30 33 1 34 13
M  V30 34 1 34 14
M  V30 35 1 35 17
M  V30 36 1 35 22
M  V30 37 1 35 23
M  V30 38 1 35 31 CFG=1
M  V30 39 1 36 25
M  V30 40 1 37 10
M  V30 41 1 37 33
M  V30 42 1 38 13
M  V30 43 1 38 18
M  V30 44 1 39 14
M  V30 45 1 39 23
M  V30 46 1 40 1
M  V30 47 1 41 1
M  V30 48 1 42 2
M  V30 49 1 43 16
M  V30 50 1 44 2
M  V30 51 1 45 5
M  V30 52 1 46 6
M  V30 53 1 47 9
M  V30 54 1 48 9
M  V30 55 1 49 9
M  V30 56 1 10 50 CFG=3
M  V30 57 1 11 51 CFG=3
M  V30 58 1 12 52 CFG=3
M  V30 59 1 13 53 CFG=1
M  V30 60 1 54 15
M  V30 61 1 55 15
M  V30 62 1 56 16
M  V30 63 1 57 18
M  V30 64 1 58 19
M  V30 65 1 59 19
M  V30 66 1 60 20
M  V30 67 1 61 21
M  V30 68 1 22 62 CFG=1
M  V30 69 1 63 23
M  V30 70 1 64 23
M  V30 71 1 24 65 CFG=3
M  V30 72 1 66 31
M  V30 73 1 67 31
M  V30 74 1 68 31
M  V30 75 1 69 32
M  V30 76 1 70 32
M  V30 77 1 33 71 CFG=3
M  V30 78 1 34 72 CFG=3
M  V30 79 1 73 36
M  V30 80 1 74 36
M  V30 81 1 75 36
M  V30 82 1 76 38
M  V30 83 1 77 38
M  V30 84 1 78 39
M  V30 85 1 79 39
M  V30 86 1 80 5
M  V30 END BOND
M  V30 END CTAB
M  END
>  <i_epik_Tot_Q>  (1) 
0

>  <i_epik_Tot_abs_Q>  (1) 
2

>  <i_i_glide_confnum>  (1) 
72

>  <i_i_glide_lignum>  (1) 
140

>  <i_i_glide_posenum>  (1) 
61

>  <i_i_glide_rotatable_bonds>  (1) 
6

>  <i_lp_mmshare_version>  (1) 
72125

>  <i_m_source_file_index>  (1) 
81

>  <i_f3d_flags>  (1) 
0

>  <num_sample>  (1) 
100

>  <b_lp_Chiralities_Consistent>  (1) 
1

>  <r_epik_Charging_Adjusted_Penalty>  (1) 
0.19389291401224384

>  <r_epik_Ionization_Penalty>  (1) 
0.092004943806736766

>  <r_epik_Ionization_Penalty_Charging>  (1) 
0.091964506543683239

>  <r_epik_Ionization_Penalty_Neutral>  (1) 
4.0437263053531681e-05

>  <r_epik_State_Penalty>  (1) 
0.10192840746856062

>  <r_glide_ring_energy>  (1) 
1.9914992284172306

>  <r_i_docking_score>  (1) 
-3.0109780837809921

>  <r_i_glide_ecoul>  (1) 
-1.8468863323988574

>  <r_i_glide_eff_state_penalty>  (1) 
0.10192840746856062

>  <r_i_glide_einternal>  (1) 
8.51830229108384

>  <r_i_glide_emodel>  (1) 
-25.37322400983523

>  <r_i_glide_emodel_strain>  (1) 
0.34452610943955619

>  <r_i_glide_energy>  (1) 
-27.107522310291724

>  <r_i_glide_erotb>  (1) 
0.28387705293314092

>  <r_i_glide_esite>  (1) 
0

>  <r_i_glide_evdw>  (1) 
-25.260635977892868

>  <r_i_glide_gscore>  (1) 
-3.1129064912495528

>  <r_i_glide_gscore_strain>  (1) 
0

>  <r_i_glide_hbond>  (1) 
0

>  <r_i_glide_ligand_efficiency>  (1) 
-0.077204566250794665

>  <r_i_glide_ligand_efficiency_ln>  (1) 
-0.64563917285833328

>  <r_i_glide_ligand_efficiency_sa>  (1) 
-0.26181700852264028

>  <r_i_glide_lipo>  (1) 
-1.4725383590728156

>  <r_i_glide_metal>  (1) 
-0

>  <r_i_glide_rewards>  (1) 
-0.38418043635540594

>  <r_lp_Energy>  (1) 
35.890972999999995

>  <r_lp_tautomer_probability>  (1) 
0.99999997999999979

>  <s_epik_Chemistry_Notes>  (1) 
This compound contains an acetal/aminal-like group ( X-CH(R)-Y where X, Y are N, S, or O) that may be acid/base labile, releasing an aldehyde.

>  <s_epik_cmdline>  (1) 
J2VwaWtfcHl0aG9uJywgJy1waHQnLCAnMS4wJywgJy1waCcsICc3LjQnLCAnLXRuJywgJzgnLCAnLW1hJywgJzUwMCcsICctaW1hZScsICc8aW5maWxlLm1hZT4nLCAnLW9tYWUnLCAnPG91dGZpbGUubWFlPic=

>  <s_epik_input>  (1) 
W0NASF0xMltDQEBIXShPMilbQ0BASF0oW09IXSlbTkhdW0NIMl1bQ0BdMShbT0hdKVtDQEBIXShbQ0gyXVtPSF0pW0NASF0oT1tDSDJdW0NIMl0zKVtDSDJdW0NAQEhdNFtDQEBIXShbQ0gzXSljKGM1bjZbQ0BdMzRbQ0gzXSlbY0hdW2NIXWMoW0NIM10pYzVjKG42KVtDQEhdKFtDSDJdW0NIMl1bQ0gyXTcpW0NIXT1DN1tPSF0=

>  <s_glide_docking_method>  (1) 
confgen

>  <s_i_glide_gridfile>  (1) 
gpcr_drd2_6luq_protein_autoprepared_prepared

>  <s_lp_Force_Field>  (1) 
S-OPLS

>  <s_lp_Variant>  (1) 
DiffSBDD_80-2

>  <s_m_source_file>  (1) 
generated_generic_title2_ligand_DiffSBDD_2026-06-23_prepared.sdf

>  <GenAI_Model>  (1) 
DiffSBDD

>  <Protein>  (1) 
generic_title2

$$$$
DiffSBDD_73
     RDKit          3D

  0  0  0  0  0  0  0  0  0  0999 V3000
M  V30 BEGIN CTAB
M  V30 COUNTS 73 79 0 0 1
M  V30 BEGIN ATOM
M  V30 1 O 6.306924 7.076750 -12.385018 0
M  V30 2 C 9.374801 8.684134 -7.340019 0
M  V30 3 C 6.301978 5.183668 -14.836036 0
M  V30 4 C 7.503315 6.599943 -12.975002 0 CFG=2
M  V30 5 O 8.456495 4.593227 -13.994580 0
M  V30 6 C 6.803323 5.947070 -16.072251 0
M  V30 7 C 11.832221 7.594554 -8.704250 0
M  V30 8 C 7.164640 5.966145 -20.391587 0 CFG=2
M  V30 9 O 5.523911 7.727113 -20.481041 0
M  V30 10 C 7.241271 5.207718 -13.614166 0 CFG=2
M  V30 11 C 7.839689 8.230036 -22.491463 0
M  V30 12 C 10.181325 7.604672 -6.691287 0 CFG=1
M  V30 13 F 4.865168 5.580273 -20.050384 0
M  V30 14 C 10.796946 8.374163 -9.476351 0 CFG=1
M  V30 15 F 4.700000 9.040511 -23.704756 0
M  V30 16 C 9.362687 6.181995 -9.639464 0 CFG=1
M  V30 17 C 5.368640 7.654856 -21.899192 0 CFG=2
M  V30 18 C 5.820766 6.489854 -19.840258 0 CFG=1
M  V30 19 C 9.065726 5.740402 -8.201024 0
M  V30 20 C 5.915536 6.827302 -18.363933 0 CFG=1
M  V30 21 C 6.702647 7.190440 -22.550887 0 CFG=1
M  V30 22 C 4.715867 6.765868 -17.447427 0
M  V30 23 F 3.597805 9.192315 -21.858174 0
M  V30 24 C 10.070180 6.189948 -7.147331 0 CFG=1
M  V30 25 C 8.975401 7.935930 -11.292710 0
M  V30 26 F 6.479801 6.937866 -23.840756 0
M  V30 27 C 4.813205 9.014302 -22.376910 0
M  V30 28 C 8.406535 5.650771 -10.709382 0 CFG=1
M  V30 29 C 8.630323 6.579881 -11.909657 0 CFG=1
M  V30 30 C 5.878075 5.805655 -17.268271 0 CFG=2
M  V30 31 C 9.525870 7.668451 -9.900392 0 CFG=2
M  V30 32 O 8.776147 4.339879 -11.076616 0
M  V30 33 F 5.587785 10.026548 -21.985617 0
M  V30 34 C 7.130160 5.851821 -21.920521 0
M  V30 35 F 7.476138 4.788929 -19.847310 0
M  V30 36 C 9.496441 8.771737 -8.855580 0 CFG=1
M  V30 37 C 11.354606 6.976600 -7.394498 0 CFG=1
M  V30 38 H 6.487267 7.308646 -11.477968 0
M  V30 39 H 8.330821 8.597392 -7.042910 0
M  V30 40 H 9.770501 9.590195 -6.898508 0
M  V30 41 H 6.172174 4.139320 -15.117864 0
M  V30 42 H 5.318411 5.555360 -14.547515 0
M  V30 43 H 7.789664 7.310817 -13.749674 0
M  V30 44 H 8.927994 4.394295 -13.193605 0
M  V30 45 H 6.909101 7.004454 -15.830671 0
M  V30 46 H 7.790525 5.588969 -16.364570 0
M  V30 47 H 12.175411 6.812169 -9.371933 0
M  V30 48 H 12.676494 8.251108 -8.492595 0
M  V30 49 H 7.968279 6.641425 -20.096643 0
M  V30 50 H 6.795577 4.562405 -12.855868 0
M  V30 51 H 8.023559 8.579583 -21.475327 0
M  V30 52 H 8.772376 7.810792 -22.869917 0
M  V30 53 H 7.618094 9.102098 -23.106449 0
M  V30 54 H 10.281383 7.735476 -5.615011 0
M  V30 55 H 11.232111 9.072085 -10.186479 0
M  V30 56 H 10.310818 5.748458 -9.872989 0
M  V30 57 H 4.605205 6.907018 -22.121591 0
M  V30 58 H 8.070325 6.045562 -7.895981 0
M  V30 59 H 9.046877 4.651028 -8.179752 0
M  V30 60 H 6.646054 7.590052 -18.166666 0
M  V30 61 H 3.782585 6.390233 -17.858768 0
M  V30 62 H 4.605804 7.574674 -16.727838 0
M  V30 63 H 10.031967 5.590229 -6.255726 0
M  V30 64 H 9.700692 8.464331 -11.910024 0
M  V30 65 H 8.100739 8.579263 -11.203500 0
M  V30 66 H 7.373757 5.679232 -10.360295 0
M  V30 67 H 9.553016 6.264839 -12.400632 0
M  V30 68 H 5.784900 4.791452 -17.644371 0
M  V30 69 H 8.700537 3.781117 -10.317742 0
M  V30 70 H 6.423493 5.070733 -22.204247 0
M  V30 71 H 8.102431 5.536414 -22.301837 0
M  V30 72 H 8.942865 9.590225 -9.276641 0
M  V30 73 H 12.175494 6.636256 -6.772554 0
M  V30 END ATOM
M  V30 BEGIN BOND
M  V30 1 1 4 1
M  V30 2 1 6 3
M  V30 3 1 10 3
M  V30 4 1 10 4
M  V30 5 1 10 5
M  V30 6 1 12 2
M  V30 7 1 14 7
M  V30 8 1 17 9
M  V30 9 1 18 8
M  V30 10 1 18 9
M  V30 11 1 18 13 CFG=1
M  V30 12 1 19 16
M  V30 13 1 20 18
M  V30 14 1 21 11
M  V30 15 1 21 17
M  V30 16 1 22 20
M  V30 17 1 24 12
M  V30 18 1 24 19
M  V30 19 1 21 26 CFG=3
M  V30 20 1 27 15
M  V30 21 1 27 17
M  V30 22 1 27 23
M  V30 23 1 28 16
M  V30 24 1 29 4
M  V30 25 1 29 25
M  V30 26 1 29 28
M  V30 27 1 30 6
M  V30 28 1 30 20
M  V30 29 1 30 22
M  V30 30 1 31 14
M  V30 31 1 31 16
M  V30 32 1 31 25 CFG=3
M  V30 33 1 32 28
M  V30 34 1 33 27
M  V30 35 1 34 8
M  V30 36 1 34 21
M  V30 37 1 35 8
M  V30 38 1 36 2
M  V30 39 1 36 14
M  V30 40 1 36 31
M  V30 41 1 37 7
M  V30 42 1 37 12
M  V30 43 1 37 24
M  V30 44 1 38 1
M  V30 45 1 39 2
M  V30 46 1 40 2
M  V30 47 1 41 3
M  V30 48 1 42 3
M  V30 49 1 4 43 CFG=3
M  V30 50 1 44 5
M  V30 51 1 45 6
M  V30 52 1 46 6
M  V30 53 1 47 7
M  V30 54 1 48 7
M  V30 55 1 8 49 CFG=3
M  V30 56 1 10 50 CFG=1
M  V30 57 1 51 11
M  V30 58 1 52 11
M  V30 59 1 53 11
M  V30 60 1 12 54 CFG=1
M  V30 61 1 14 55 CFG=3
M  V30 62 1 16 56 CFG=3
M  V30 63 1 17 57 CFG=1
M  V30 64 1 58 19
M  V30 65 1 59 19
M  V30 66 1 20 60 CFG=3
M  V30 67 1 61 22
M  V30 68 1 62 22
M  V30 69 1 24 63 CFG=1
M  V30 70 1 64 25
M  V30 71 1 65 25
M  V30 72 1 28 66 CFG=1
M  V30 73 1 29 67 CFG=3
M  V30 74 1 30 68 CFG=3
M  V30 75 1 69 32
M  V30 76 1 70 34
M  V30 77 1 71 34
M  V30 78 1 36 72 CFG=3
M  V30 79 1 37 73 CFG=1
M  V30 END BOND
M  V30 END CTAB
M  END
>  <i_epik_Tot_Q>  (1) 
0

>  <i_epik_Tot_abs_Q>  (1) 
0

>  <i_i_glide_confnum>  (1) 
6

>  <i_i_glide_lignum>  (1) 
120

>  <i_i_glide_posenum>  (1) 
179

>  <i_i_glide_rotatable_bonds>  (1) 
10

>  <i_lp_mmshare_version>  (1) 
72125

>  <i_m_source_file_index>  (1) 
74

>  <i_f3d_flags>  (1) 
0

>  <num_sample>  (1) 
100

>  <b_lp_Chiralities_Consistent>  (1) 
1

>  <r_epik_Charging_Adjusted_Penalty>  (1) 
0

>  <r_epik_Ionization_Penalty>  (1) 
7.8331544483768561e-07

>  <r_epik_Ionization_Penalty_Charging>  (1) 
0

>  <r_epik_Ionization_Penalty_Neutral>  (1) 
7.8331544483768561e-07

>  <r_epik_State_Penalty>  (1) 
-0

>  <r_glide_ring_energy>  (1) 
0

>  <r_i_docking_score>  (1) 
-3.0083684139047255

>  <r_i_glide_ecoul>  (1) 
-2.5985012867206971

>  <r_i_glide_eff_state_penalty>  (1) 
-0

>  <r_i_glide_einternal>  (1) 
7.639506789435961

>  <r_i_glide_emodel>  (1) 
-25.490539344418526

>  <r_i_glide_emodel_strain>  (1) 
1.0126022674816113

>  <r_i_glide_energy>  (1) 
-29.590247113112607

>  <r_i_glide_erotb>  (1) 
0.42742290402324423

>  <r_i_glide_esite>  (1) 
0

>  <r_i_glide_evdw>  (1) 
-26.991745826391909

>  <r_i_glide_gscore>  (1) 
-3.0083684139047255

>  <r_i_glide_gscore_strain>  (1) 
0

>  <r_i_glide_hbond>  (1) 
-0.11613164157128328

>  <r_i_glide_ligand_efficiency>  (1) 
-0.081307254429857451

>  <r_i_glide_ligand_efficiency_ln>  (1) 
-0.65244458281399242

>  <r_i_glide_ligand_efficiency_sa>  (1) 
-0.27093380990850824

>  <r_i_glide_lipo>  (1) 
-1.8804221916198072

>  <r_i_glide_metal>  (1) 
-0

>  <r_i_glide_rewards>  (1) 
0.30012499959082106

>  <r_lp_Energy>  (1) 
61.599440999999999

>  <r_lp_tautomer_probability>  (1) 
1

>  <s_epik_cmdline>  (1) 
J2VwaWtfcHl0aG9uJywgJy1waHQnLCAnMS4wJywgJy1waCcsICc3LjQnLCAnLXRuJywgJzgnLCAnLW1hJywgJzUwMCcsICctaW1hZScsICc8aW5maWxlLm1hZT4nLCAnLW9tYWUnLCAnPG91dGZpbGUubWFlPic=

>  <s_epik_input>  (1) 
QzEyM1tDQEhdNFtDQEBIXTNbQ0gyXVtDQEhdNVtDQEhdKFtDQEhdNVtDSDJdNClbQ0gyXVtDQEhdMVtDQEhdKFtPSF0pW0NASF0oW0NIMl0yKVtDQEBIXShbT0hdKVtDQEhdKFtPSF0pW0NIMl1bQ0gyXVtDQEhdNltDSDJdW0NAQEhdNltDQF03KEYpW0NAQEhdKEYpW0NIMl1bQ0BdKEYpKFtDSDNdKVtDQEBIXShPNylDKEYpKEYpRg==

>  <s_glide_docking_method>  (1) 
confgen

>  <s_i_glide_gridfile>  (1) 
gpcr_drd2_6luq_protein_autoprepared_prepared

>  <s_lp_Force_Field>  (1) 
S-OPLS

>  <s_lp_Variant>  (1) 
DiffSBDD_73-1

>  <s_m_source_file>  (1) 
generated_generic_title2_ligand_DiffSBDD_2026-06-23_prepared.sdf

>  <GenAI_Model>  (1) 
DiffSBDD

>  <Protein>  (1) 
generic_title2

$$$$
DiffSBDD_86
     RDKit          3D

  0  0  0  0  0  0  0  0  0  0999 V3000
M  V30 BEGIN CTAB
M  V30 COUNTS 113 116 0 0 1
M  V30 BEGIN ATOM
M  V30 1 C 13.759564 5.913106 -19.733207 0
M  V30 2 C 13.078058 7.277277 -19.586039 0 CFG=1
M  V30 3 C 10.084088 7.481343 -8.111343 0
M  V30 4 C 2.975606 7.034749 -17.382010 0
M  V30 5 C 7.273631 3.503571 -19.243414 0 CFG=2
M  V30 6 C 8.381825 5.033033 -12.764381 0
M  V30 7 O 9.543180 2.717240 -19.476868 0
M  V30 8 C 8.183746 1.640489 -17.697205 0 CFG=2
M  V30 9 O 11.406094 1.975798 -17.637296 0
M  V30 10 C 9.303655 1.498586 -18.763631 0 CFG=2
M  V30 11 C 5.966964 4.009296 -19.893814 0
M  V30 12 O 14.042997 8.304267 -19.479136 0
M  V30 13 N 9.375398 6.909543 -10.356563 0
M  V30 14 C 10.365471 5.685582 -17.617106 0
M  V30 15 C 11.547894 4.635034 -20.412409 0 CFG=1
M  V30 16 C 7.391362 3.969399 -14.703635 0 CFG=2
M  V30 17 O 11.081507 5.845260 -22.880849 0
M  V30 18 C 4.960085 7.869234 -18.648355 0
M  V30 19 C 8.470107 3.295042 -20.238530 0 CFG=1
M  V30 20 C 8.115802 2.313686 -21.402846 0
M  V30 21 C 10.160890 5.280662 -20.159946 0 CFG=2
M  V30 22 O 12.575454 7.590154 -13.819838 0
M  V30 23 O 7.323447 5.491076 -12.332259 0
M  V30 24 N 11.036951 7.190179 -12.039026 0
M  V30 25 C 8.929323 4.669543 -20.802387 0
M  V30 26 C 6.956228 2.255216 -18.391810 0
M  V30 27 C 10.771153 7.968153 -5.717175 0
M  V30 28 O 8.529593 4.398886 -13.951497 0
M  V30 29 P 11.234939 6.098427 -21.419932 0 CFG=1
M  V30 30 C 5.449333 6.901256 -17.598980 0 CFG=2
M  V30 31 C 12.157415 7.579758 -20.770603 0
M  V30 32 C 9.313750 1.955743 -22.297219 0
M  V30 33 C 4.254317 7.665038 -17.328560 0 CFG=2
M  V30 34 F 13.318519 7.027550 -14.926456 0
M  V30 35 C 6.581680 7.245018 -16.735591 0
M  V30 36 C 8.267161 5.283426 -21.808001 0
M  V30 37 C 9.845502 6.193543 -18.969728 0
M  V30 38 C 10.092460 6.512137 -11.467059 0
M  V30 39 C 12.813956 4.710392 -19.546963 0
M  V30 40 C 7.699536 2.502441 -15.162247 0 CFG=2
M  V30 41 C 9.686301 5.118624 -11.969572 0
M  V30 42 C 9.781683 8.025575 -9.515554 0
M  V30 43 C 10.678275 0.972201 -18.308552 0
M  V30 44 C 8.651787 2.305626 -16.372093 0
M  V30 45 O 6.575443 1.658148 -15.241604 0
M  V30 46 C 6.798076 6.428410 -15.449456 0
M  V30 47 C 7.091241 4.987397 -15.825069 0
M  V30 48 C 10.380534 8.563791 -7.072501 0
M  V30 49 C 11.803380 6.637831 -13.131240 0
M  V30 50 H 14.555424 5.832639 -18.991918 0
M  V30 51 H 14.252166 5.850435 -20.704513 0
M  V30 52 H 12.511259 7.305875 -18.660030 0
M  V30 53 H 9.231550 6.896213 -7.759911 0
M  V30 54 H 10.924808 6.787807 -8.169942 0
M  V30 55 H 3.014714 6.090225 -17.896411 0
M  V30 56 H 2.581622 6.901581 -16.385157 0
M  V30 57 H 2.435164 7.756691 -17.969033 0
M  V30 58 H 7.587330 4.277156 -18.549818 0
M  V30 59 H 7.890005 0.627947 -17.417985 0
M  V30 60 H 11.336359 2.765168 -18.157823 0
M  V30 61 H 8.959726 0.741367 -19.465226 0
M  V30 62 H 5.633025 3.361027 -20.703828 0
M  V30 63 H 5.153646 4.038950 -19.170658 0
M  V30 64 H 6.069640 5.020445 -20.283974 0
M  V30 65 H 13.617496 9.084226 -19.148482 0
M  V30 66 H 8.615611 6.356674 -9.979562 0
M  V30 67 H 9.739165 6.001338 -16.787616 0
M  V30 68 H 10.398891 4.600172 -17.609251 0
M  V30 69 H 11.364195 6.045693 -17.384062 0
M  V30 70 H 11.512159 3.708216 -20.980846 0
M  V30 71 H 6.527824 3.921580 -14.040235 0
M  V30 72 H 5.376539 8.856037 -18.784183 0
M  V30 73 H 4.524020 7.429574 -19.543131 0
M  V30 74 H 7.677912 1.393254 -21.023764 0
M  V30 75 H 7.329847 2.718206 -22.036724 0
M  V30 76 H 6.181630 2.474592 -17.662801 0
M  V30 77 H 6.512312 1.498838 -19.041207 0
M  V30 78 H 10.955300 8.752429 -4.980921 0
M  V30 79 H 9.979496 7.325711 -5.329991 0
M  V30 80 H 11.675553 7.364742 -5.798937 0
M  V30 81 H 5.338425 5.860336 -17.873658 0
M  V30 82 H 11.460149 8.385807 -20.540430 0
M  V30 83 H 12.754629 7.935704 -21.611027 0
M  V30 84 H 9.014715 1.256029 -23.078112 0
M  V30 85 H 9.726664 2.840779 -22.784270 0
M  V30 86 H 10.112596 1.486366 -21.721758 0
M  V30 87 H 4.340630 8.392432 -16.531697 0
M  V30 88 H 6.573253 8.307730 -16.489162 0
M  V30 89 H 7.375373 7.064348 -17.446613 0
M  V30 90 H 8.591846 6.239107 -22.191511 0
M  V30 91 H 7.393849 4.838026 -22.255634 0
M  V30 92 H 10.166308 7.214064 -19.147761 0
M  V30 93 H 8.762612 6.274814 -18.912172 0
M  V30 94 H 12.547729 4.605129 -18.500806 0
M  V30 95 H 13.391596 3.808425 -19.752746 0
M  V30 96 H 8.214718 2.064876 -14.304536 0
M  V30 97 H 9.551167 4.486436 -11.092103 0
M  V30 98 H 10.491937 4.626080 -12.502394 0
M  V30 99 H 10.654901 8.546496 -9.911895 0
M  V30 100 H 8.975597 8.756807 -9.474856 0
M  V30 101 H 11.260069 0.656326 -19.175126 0
M  V30 102 H 10.575324 0.101123 -17.661977 0
M  V30 103 H 9.375712 1.594267 -15.994747 0
M  V30 104 H 9.215042 3.210051 -16.559219 0
M  V30 105 H 6.869376 0.762975 -15.327784 0
M  V30 106 H 5.928856 6.491969 -14.795498 0
M  V30 107 H 7.641407 6.840024 -14.897671 0
M  V30 108 H 7.882945 4.964162 -16.558378 0
M  V30 109 H 6.176618 4.776619 -16.336635 0
M  V30 110 H 11.183633 9.204924 -7.430712 0
M  V30 111 H 9.497207 9.190364 -6.951111 0
M  V30 112 H 12.551205 5.990407 -12.696681 0
M  V30 113 H 11.192562 6.099053 -13.858272 0
M  V30 END ATOM
M  V30 BEGIN BOND
M  V30 1 1 2 1
M  V30 2 1 10 7
M  V30 3 1 10 8
M  V30 4 1 11 5
M  V30 5 1 12 2
M  V30 6 1 19 5
M  V30 7 1 19 7
M  V30 8 1 19 20 CFG=3
M  V30 9 1 21 15
M  V30 10 2 23 6
M  V30 11 1 25 19
M  V30 12 1 25 21
M  V30 13 1 26 5
M  V30 14 1 26 8
M  V30 15 1 28 6
M  V30 16 1 28 16
M  V30 17 1 29 15
M  V30 18 2 29 17
M  V30 19 1 29 21
M  V30 20 1 30 18
M  V30 21 1 31 2
M  V30 22 1 29 31 CFG=3
M  V30 23 1 32 20
M  V30 24 1 33 4
M  V30 25 1 33 18
M  V30 26 1 33 30
M  V30 27 1 34 22
M  V30 28 1 35 30
M  V30 29 2 36 25
M  V30 30 1 37 14
M  V30 31 1 21 37 CFG=1
M  V30 32 1 38 13
M  V30 33 2 38 24
M  V30 34 1 39 1
M  V30 35 1 39 15
M  V30 36 1 40 16
M  V30 37 1 41 6
M  V30 38 1 41 38
M  V30 39 1 42 3
M  V30 40 1 42 13
M  V30 41 1 43 9
M  V30 42 1 43 10
M  V30 43 1 44 8
M  V30 44 1 44 40
M  V30 45 1 45 40
M  V30 46 1 46 35
M  V30 47 1 47 16
M  V30 48 1 47 46
M  V30 49 1 48 3
M  V30 50 1 48 27
M  V30 51 1 49 22
M  V30 52 1 49 24
M  V30 53 1 50 1
M  V30 54 1 51 1
M  V30 55 1 2 52 CFG=1
M  V30 56 1 53 3
M  V30 57 1 54 3
M  V30 58 1 55 4
M  V30 59 1 56 4
M  V30 60 1 57 4
M  V30 61 1 5 58 CFG=1
M  V30 62 1 8 59 CFG=1
M  V30 63 1 60 9
M  V30 64 1 10 61 CFG=3
M  V30 65 1 62 11
M  V30 66 1 63 11
M  V30 67 1 64 11
M  V30 68 1 65 12
M  V30 69 1 66 13
M  V30 70 1 67 14
M  V30 71 1 68 14
M  V30 72 1 69 14
M  V30 73 1 15 70 CFG=3
M  V30 74 1 16 71 CFG=1
M  V30 75 1 72 18
M  V30 76 1 73 18
M  V30 77 1 74 20
M  V30 78 1 75 20
M  V30 79 1 76 26
M  V30 80 1 77 26
M  V30 81 1 78 27
M  V30 82 1 79 27
M  V30 83 1 80 27
M  V30 84 1 30 81 CFG=3
M  V30 85 1 82 31
M  V30 86 1 83 31
M  V30 87 1 84 32
M  V30 88 1 85 32
M  V30 89 1 86 32
M  V30 90 1 33 87 CFG=1
M  V30 91 1 88 35
M  V30 92 1 89 35
M  V30 93 1 90 36
M  V30 94 1 91 36
M  V30 95 1 92 37
M  V30 96 1 93 37
M  V30 97 1 94 39
M  V30 98 1 95 39
M  V30 99 1 40 96 CFG=1
M  V30 100 1 97 41
M  V30 101 1 98 41
M  V30 102 1 99 42
M  V30 103 1 100 42
M  V30 104 1 101 43
M  V30 105 1 102 43
M  V30 106 1 103 44
M  V30 107 1 104 44
M  V30 108 1 105 45
M  V30 109 1 106 46
M  V30 110 1 107 46
M  V30 111 1 108 47
M  V30 112 1 109 47
M  V30 113 1 110 48
M  V30 114 1 111 48
M  V30 115 1 112 49
M  V30 116 1 113 49
M  V30 END BOND
M  V30 END CTAB
M  END
>  <i_epik_Tot_Q>  (1) 
0

>  <i_epik_Tot_abs_Q>  (1) 
0

>  <i_i_glide_confnum>  (1) 
11305

>  <i_i_glide_lignum>  (1) 
156

>  <i_i_glide_posenum>  (1) 
59

>  <i_i_glide_rotatable_bonds>  (1) 
25

>  <i_lp_mmshare_version>  (1) 
72125

>  <i_m_source_file_index>  (1) 
87

>  <i_f3d_flags>  (1) 
0

>  <num_sample>  (1) 
100

>  <b_lp_Chiralities_Consistent>  (1) 
1

>  <r_epik_Charging_Adjusted_Penalty>  (1) 
1.2316584192148512

>  <r_epik_Ionization_Penalty>  (1) 
1.2316590375040075

>  <r_epik_Ionization_Penalty_Charging>  (1) 
0

>  <r_epik_Ionization_Penalty_Neutral>  (1) 
1.2316590375040075

>  <r_epik_State_Penalty>  (1) 
1.2316584192148512

>  <r_glide_ring_energy>  (1) 
0

>  <r_i_docking_score>  (1) 
-2.9942821717110948

>  <r_i_glide_ecoul>  (1) 
-3.942474754481629

>  <r_i_glide_eff_state_penalty>  (1) 
1.2316584192148512

>  <r_i_glide_einternal>  (1) 
29.622192460148021

>  <r_i_glide_emodel>  (1) 
-14.95394153876423

>  <r_i_glide_emodel_strain>  (1) 
2.7957761301784103

>  <r_i_glide_energy>  (1) 
-23.113566132860985

>  <r_i_glide_erotb>  (1) 
0.57622798544967491

>  <r_i_glide_esite>  (1) 
-0.14321419363768456

>  <r_i_glide_evdw>  (1) 
-19.171091378379355

>  <r_i_glide_gscore>  (1) 
-4.225940590925946

>  <r_i_glide_gscore_strain>  (1) 
0

>  <r_i_glide_hbond>  (1) 
-0.0059687979524207782

>  <r_i_glide_ligand_efficiency>  (1) 
-0.061107799422675406

>  <r_i_glide_ligand_efficiency_ln>  (1) 
-0.61209978887973049

>  <r_i_glide_ligand_efficiency_sa>  (1) 
-0.22361211935433459

>  <r_i_glide_lipo>  (1) 
-2.5725724070567901

>  <r_i_glide_metal>  (1) 
-0

>  <r_i_glide_rewards>  (1) 
-0.53048739563751368

>  <r_lp_Energy>  (1) 
50.302675999999998

>  <s_epik_Chemistry_Notes>  (1) 
This compound has an ester and may undergo hydrolysis at high or low pH. This compound has an imine and may undergo hydrolysis. This compound contains an acetal/aminal-like group ( X-CH(R)-Y where X, Y are N, S, or O) that may be acid/base labile, releasing an aldehyde.

>  <s_epik_cmdline>  (1) 
J2VwaWtfcHl0aG9uJywgJy1waHQnLCAnMS4wJywgJy1waCcsICc3LjQnLCAnLXRuJywgJzgnLCAnLW1hJywgJzUwMCcsICctaW1hZScsICc8aW5maWxlLm1hZT4nLCAnLW9tYWUnLCAnPG91dGZpbGUubWFlPic=

>  <s_epik_input>  (1) 
W09IXVtDQEBIXShbQ0gyXTEpW0NIMl1bQ0gyXVtDQEhdKFAxMj1PKVtDQEBdMihbQ0gyXVtDSDNdKUMoPVtDSDJdKVtDQF0zKFtDSDJdW0NIM10pW0NAQEhdKFtDSDNdKVtDSDJdW0NAQEhdKFtDQEBIXShPMylbQ0gyXVtPSF0pW0NIMl1bQ0BIXShbT0hdKVtDQEhdKFtDSDJdW0NIMl1bQ0gyXVtDQEBIXTRbQ0gyXVtDQEhdNFtDSDNdKU9DKD1PKVtDSDJdQyg9TlxbQ0gyXU9GKS9bTkhdW0NIMl1bQ0gyXVtDSDJdW0NIM10=

>  <s_glide_docking_method>  (1) 
confgen

>  <s_i_glide_gridfile>  (1) 
gpcr_drd2_6luq_protein_autoprepared_prepared

>  <s_lp_Force_Field>  (1) 
S-OPLS

>  <s_lp_Variant>  (1) 
DiffSBDD_86-4

>  <s_m_source_file>  (1) 
generated_generic_title2_ligand_DiffSBDD_2026-06-23_prepared.sdf

>  <GenAI_Model>  (1) 
DiffSBDD

>  <Protein>  (1) 
generic_title2

$$$$
DiffSBDD_74
     RDKit          3D

  0  0  0  0  0  0  0  0  0  0999 V3000
M  V30 BEGIN CTAB
M  V30 COUNTS 92 99 0 0 1
M  V30 BEGIN ATOM
M  V30 1 C 6.948896 2.196679 -21.060785 0 CFG=2
M  V30 2 N 15.098279 5.929191 -19.717620 0
M  V30 3 C 17.277957 6.390647 -18.740774 0
M  V30 4 C 13.867588 6.400962 -20.285447 0
M  V30 5 F 11.787835 2.847632 -21.695810 0
M  V30 6 O 6.416669 0.756774 -19.151633 0
M  V30 7 O 10.227896 3.232667 -17.310383 0
M  V30 8 C 15.472465 4.489696 -19.868999 0 CFG=1
M  V30 9 C 20.023309 8.712907 -18.866079 0
M  V30 10 C 6.946436 2.034872 -19.498882 0 CFG=1
M  V30 11 C 7.397245 4.316637 -17.710581 0 CFG=2
M  V30 12 C 16.022224 6.838453 -19.044527 0
M  V30 13 C 13.478302 1.714721 -17.336504 0
M  V30 14 C 9.115523 3.288283 -19.942872 0 CFG=1
M  V30 15 C 18.640022 8.492512 -18.601578 0
M  V30 16 C 10.860773 2.670091 -20.760815 0
M  V30 17 C 10.699236 5.351795 -20.480481 0 CFG=2
M  V30 18 C 9.853661 4.606381 -17.292391 0 CFG=1
M  V30 19 C 9.410579 2.807312 -21.324882 0 CFG=1
M  V30 20 O 13.177449 5.360199 -20.806170 0
M  V30 21 O 5.826694 6.095992 -17.213849 0
M  V30 22 O 6.975448 2.029209 -17.052434 0
M  V30 23 C 6.210087 5.178012 -18.220145 0 CFG=1
M  V30 24 S 13.436893 2.902825 -18.708239 0 CHG=1
M  V30 25 C 10.156580 5.392812 -16.042884 0
M  V30 26 C 6.436531 5.977540 -19.511884 0
M  V30 27 C 5.775573 1.469690 -21.742752 0
M  V30 28 N 21.140111 8.897016 -19.105017 0
M  V30 29 C 17.767321 5.003162 -19.111713 0
M  V30 30 C 15.560960 8.223614 -18.705311 0
M  V30 31 C 9.131263 0.957209 -18.602809 0
M  V30 32 C 8.379393 2.250969 -19.021285 0 CFG=2
M  V30 33 O 13.458639 7.559655 -20.318121 0
M  V30 34 C 10.519607 6.619057 -19.604416 0
M  V30 35 C 12.396623 4.191947 -17.971756 0
M  V30 36 C 8.330236 1.796355 -21.736635 0
M  V30 37 F 11.135753 1.511579 -20.177201 0
M  V30 38 C 10.531567 3.905964 -19.796336 0 CFG=1
M  V30 39 C 17.760760 9.461183 -18.849380 0
M  V30 40 C 11.913054 5.565651 -21.424748 0
M  V30 41 C 10.910780 4.041555 -18.276859 0 CFG=1
M  V30 42 C 16.947844 4.368624 -20.209884 0
M  V30 43 O 8.641745 4.982457 -17.970601 0
M  V30 44 C 15.094009 3.646310 -18.616239 0
M  V30 45 C 18.267614 7.201024 -17.973888 0
M  V30 46 C 7.316146 2.832232 -18.168004 0 CFG=1
M  V30 47 C 16.320315 9.356399 -18.630793 0
M  V30 48 H 6.769096 3.250550 -21.270034 0
M  V30 49 H 6.781191 0.113042 -19.740932 0
M  V30 50 H 15.013285 4.014029 -20.735994 0
M  V30 51 H 7.328029 4.303244 -16.620715 0
M  V30 52 H 12.487401 1.286490 -17.185243 0
M  V30 53 H 13.792950 2.193023 -16.408654 0
M  V30 54 H 14.171311 0.903182 -17.558223 0
M  V30 55 H 8.451598 4.130790 -20.107352 0
M  V30 56 H 9.866506 5.481061 -21.168929 0
M  V30 57 H 9.392605 3.626596 -22.043392 0
M  V30 58 H 5.661793 5.619355 -16.414189 0
M  V30 59 H 6.623712 1.231271 -17.437074 0
M  V30 60 H 5.358120 4.521367 -18.384993 0
M  V30 61 H 9.268467 5.467497 -15.415497 0
M  V30 62 H 10.486758 6.390191 -16.323706 0
M  V30 63 H 10.947266 4.916532 -15.467198 0
M  V30 64 H 6.648127 5.333907 -20.361507 0
M  V30 65 H 7.253988 6.689294 -19.407198 0
M  V30 66 H 5.544437 6.550267 -19.767467 0
M  V30 67 H 5.902638 0.386944 -21.730107 0
M  V30 68 H 5.675545 1.771393 -22.785446 0
M  V30 69 H 4.833898 1.696535 -21.244515 0
M  V30 70 H 18.801570 5.065538 -19.453499 0
M  V30 71 H 17.771918 4.390241 -18.213589 0
M  V30 72 H 14.507604 8.365199 -18.544819 0
M  V30 73 H 10.109259 1.132828 -18.168062 0
M  V30 74 H 9.250856 0.282480 -19.447340 0
M  V30 75 H 8.589359 0.385418 -17.851294 0
M  V30 76 H 11.210723 6.681261 -18.767894 0
M  V30 77 H 9.510400 6.730306 -19.223273 0
M  V30 78 H 10.684831 7.519341 -20.197255 0
M  V30 79 H 12.558370 4.184802 -16.894668 0
M  V30 80 H 12.725552 5.170322 -18.289119 0
M  V30 81 H 8.610499 0.775101 -21.484177 0
M  V30 82 H 8.222222 1.807647 -22.821820 0
M  V30 83 H 18.142013 10.395370 -19.231060 0
M  V30 84 H 11.841046 4.929758 -22.303268 0
M  V30 85 H 11.865009 6.567987 -21.853090 0
M  V30 86 H 17.240956 3.327807 -20.353117 0
M  V30 87 H 17.147250 4.875999 -21.155538 0
M  V30 88 H 15.775272 2.798584 -18.550363 0
M  V30 89 H 15.212946 4.208347 -17.688836 0
M  V30 90 H 17.859501 7.400956 -16.982201 0
M  V30 91 H 19.172681 6.617477 -17.801656 0
M  V30 92 H 15.789539 10.278670 -18.439678 0
M  V30 END ATOM
M  V30 BEGIN BOND
M  V30 1 1 4 2
M  V30 2 1 8 2
M  V30 3 1 10 1
M  V30 4 1 10 6 CFG=1
M  V30 5 1 12 2
M  V30 6 2 12 3
M  V30 7 1 15 9
M  V30 8 1 16 5
M  V30 9 1 18 7
M  V30 10 1 19 14
M  V30 11 1 19 16
M  V30 12 1 20 4
M  V30 13 1 23 11
M  V30 14 1 23 21
M  V30 15 1 24 13 CFG=1
M  V30 16 1 18 25 CFG=1
M  V30 17 1 26 23
M  V30 18 1 27 1
M  V30 19 3 28 9
M  V30 20 1 29 3
M  V30 21 1 30 12
M  V30 22 1 32 10
M  V30 23 1 32 14
M  V30 24 1 32 31 CFG=1
M  V30 25 2 33 4
M  V30 26 1 34 17
M  V30 27 1 35 24
M  V30 28 1 36 1
M  V30 29 1 36 19
M  V30 30 1 37 16
M  V30 31 1 38 14
M  V30 32 1 38 16 CFG=3
M  V30 33 1 38 17
M  V30 34 2 39 15
M  V30 35 1 40 17
M  V30 36 1 40 20
M  V30 37 1 41 7 CFG=1
M  V30 38 1 41 18
M  V30 39 1 41 35
M  V30 40 1 41 38
M  V30 41 1 42 8
M  V30 42 1 42 29
M  V30 43 1 43 11
M  V30 44 1 43 18
M  V30 45 1 44 8
M  V30 46 1 44 24
M  V30 47 1 45 3
M  V30 48 1 45 15
M  V30 49 1 46 10
M  V30 50 1 46 11
M  V30 51 1 46 22 CFG=1
M  V30 52 1 46 32
M  V30 53 2 47 30
M  V30 54 1 47 39
M  V30 55 1 1 48 CFG=1
M  V30 56 1 49 6
M  V30 57 1 8 50 CFG=3
M  V30 58 1 11 51 CFG=1
M  V30 59 1 52 13
M  V30 60 1 53 13
M  V30 61 1 54 13
M  V30 62 1 14 55 CFG=3
M  V30 63 1 17 56 CFG=3
M  V30 64 1 19 57 CFG=3
M  V30 65 1 58 21
M  V30 66 1 59 22
M  V30 67 1 23 60 CFG=3
M  V30 68 1 61 25
M  V30 69 1 62 25
M  V30 70 1 63 25
M  V30 71 1 64 26
M  V30 72 1 65 26
M  V30 73 1 66 26
M  V30 74 1 67 27
M  V30 75 1 68 27
M  V30 76 1 69 27
M  V30 77 1 70 29
M  V30 78 1 71 29
M  V30 79 1 72 30
M  V30 80 1 73 31
M  V30 81 1 74 31
M  V30 82 1 75 31
M  V30 83 1 76 34
M  V30 84 1 77 34
M  V30 85 1 78 34
M  V30 86 1 79 35
M  V30 87 1 80 35
M  V30 88 1 81 36
M  V30 89 1 82 36
M  V30 90 1 83 39
M  V30 91 1 84 40
M  V30 92 1 85 40
M  V30 93 1 86 42
M  V30 94 1 87 42
M  V30 95 1 88 44
M  V30 96 1 89 44
M  V30 97 1 90 45
M  V30 98 1 91 45
M  V30 99 1 92 47
M  V30 END BOND
M  V30 END CTAB
M  END
>  <i_epik_Tot_Q>  (1) 
1

>  <i_epik_Tot_abs_Q>  (1) 
1

>  <i_i_glide_confnum>  (1) 
1

>  <i_i_glide_lignum>  (1) 
121

>  <i_i_glide_posenum>  (1) 
151

>  <i_i_glide_rotatable_bonds>  (1) 
4

>  <i_lp_mmshare_version>  (1) 
72125

>  <i_m_source_file_index>  (1) 
75

>  <i_f3d_flags>  (1) 
0

>  <num_sample>  (1) 
100

>  <b_lp_Chiralities_Consistent>  (1) 
1

>  <r_epik_Charging_Adjusted_Penalty>  (1) 
0

>  <r_epik_Ionization_Penalty>  (1) 
2.279428951435475e-07

>  <r_epik_Ionization_Penalty_Charging>  (1) 
0

>  <r_epik_Ionization_Penalty_Neutral>  (1) 
2.279428951435475e-07

>  <r_epik_State_Penalty>  (1) 
-0

>  <r_glide_ring_energy>  (1) 
0

>  <r_i_docking_score>  (1) 
-2.9829090230506194

>  <r_i_glide_ecoul>  (1) 
-0.38777376326987534

>  <r_i_glide_eff_state_penalty>  (1) 
-0

>  <r_i_glide_einternal>  (1) 
2.7247099498269889

>  <r_i_glide_emodel>  (1) 
-30.000743331891851

>  <r_i_glide_emodel_strain>  (1) 
0.13787441817436275

>  <r_i_glide_energy>  (1) 
-28.578729810766369

>  <r_i_glide_erotb>  (1) 
0.046727806610761473

>  <r_i_glide_esite>  (1) 
0

>  <r_i_glide_evdw>  (1) 
-28.190956047496492

>  <r_i_glide_gscore>  (1) 
-2.9829090230506194

>  <r_i_glide_gscore_strain>  (1) 
0

>  <r_i_glide_hbond>  (1) 
0

>  <r_i_glide_ligand_efficiency>  (1) 
-0.063466149426608928

>  <r_i_glide_ligand_efficiency_ln>  (1) 
-0.61501407132412

>  <r_i_glide_ligand_efficiency_sa>  (1) 
-0.22903829525672578

>  <r_i_glide_lipo>  (1) 
-1.3759011585435961

>  <r_i_glide_metal>  (1) 
-0

>  <r_i_glide_rewards>  (1) 
-0.1860218042524785

>  <r_lp_Energy>  (1) 
145.95767599999999

>  <r_lp_tautomer_probability>  (1) 
1

>  <s_epik_Chemistry_Notes>  (1) 
This compound has an ester and may undergo hydrolysis at high or low pH.

>  <s_epik_cmdline>  (1) 
J2VwaWtfcHl0aG9uJywgJy1waHQnLCAnMS4wJywgJy1waCcsICc3LjQnLCAnLXRuJywgJzgnLCAnLW1hJywgJzUwMCcsICctaW1hZScsICc8aW5maWxlLm1hZT4nLCAnLW9tYWUnLCAnPG91dGZpbGUubWFlPic=

>  <s_epik_input>  (1) 
W0NIM11bQ0BASF0xW0NIMl1bQ0BIXShDMihGKUYpW0NASF0zW0NAXTQoW0NIM10pW0NAQF0xKFtPSF0pQzQoW09IXSlbQ0BIXShbQ0BASF0oW09IXSlbQ0gzXSlPW0NAQF0oTzUpKFtDSDNdKVtDQEBdNShbQ0BdMjM2KVtDSDJdW1MrXShbQ0gzXSlbQ0gyXVtDQEhdN04oQyg9TylPW0NIMl1bQ0BASF02W0NIM10pQzg9QyhbQ0gyXVtDSDJdNylbQ0gyXUMoQyNOKT1bQ0hdW0NIXT1bQ0hdOA==

>  <s_glide_docking_method>  (1) 
confgen

>  <s_i_glide_gridfile>  (1) 
gpcr_drd2_6luq_protein_autoprepared_prepared

>  <s_lp_Force_Field>  (1) 
S-OPLS

>  <s_lp_Variant>  (1) 
DiffSBDD_74-1

>  <s_m_source_file>  (1) 
generated_generic_title2_ligand_DiffSBDD_2026-06-23_prepared.sdf

>  <GenAI_Model>  (1) 
DiffSBDD

>  <Protein>  (1) 
generic_title2

$$$$
DiffSBDD_82
     RDKit          3D

  0  0  0  0  0  0  0  0  0  0999 V3000
M  V30 BEGIN CTAB
M  V30 COUNTS 74 80 0 0 1
M  V30 BEGIN ATOM
M  V30 1 N 9.096166 4.061334 -16.738742 0
M  V30 2 C 8.738925 5.113744 -14.553886 0
M  V30 3 N 7.265015 1.967087 -16.087730 0
M  V30 4 O 7.242533 -2.967260 -18.367142 0
M  V30 5 O 7.104737 -0.167064 -20.639243 0
M  V30 6 C 9.033765 5.709822 -10.793137 0
M  V30 7 C 8.338790 4.800949 -13.092975 0 CFG=1
M  V30 8 C 8.413501 3.991207 -15.518771 0
M  V30 9 C 9.756689 1.610769 -18.252096 0
M  V30 10 N 9.409408 2.908714 -18.847007 0
M  V30 11 C 6.649796 0.130500 -18.338620 0
M  V30 12 C 8.489443 3.695700 -18.014062 0 CFG=1
M  V30 13 C 6.403757 0.826844 -15.845636 0
M  V30 14 C 9.099351 4.373651 -10.187222 0
M  V30 15 C 9.389521 8.033773 -10.385057 0
M  V30 16 C 6.817485 2.939672 -13.858459 0
M  V30 17 C 8.869048 2.615457 -20.173254 0
M  V30 18 C 8.842762 5.116916 -17.698301 0 CFG=1
M  V30 19 C 8.975427 8.343149 -11.698042 0
M  V30 20 O 9.775292 9.007951 -9.527534 0
M  V30 21 C 6.913366 -2.168436 -19.485605 0
M  V30 22 C 8.651956 5.957973 -12.130851 0
M  V30 23 C 8.589866 7.301082 -12.572164 0
M  V30 24 C 9.007557 -0.706444 -19.248000 0
M  V30 25 C 9.687096 1.424917 -20.654798 0
M  V30 26 C 7.442877 -0.713343 -19.379548 0 CFG=1
M  V30 27 O 5.775389 -1.312353 -16.629595 0
M  V30 28 N 9.685581 6.304104 -8.687850 0
M  V30 29 C 9.870384 0.591215 -19.393589 0 CFG=1
M  V30 30 C 9.375427 6.706285 -9.963364 0
M  V30 31 C 7.705768 4.836654 -18.655217 0
M  V30 32 O 10.974332 6.693180 -8.285584 0
M  V30 33 C 9.627156 4.816386 -8.726386 0
M  V30 34 C 6.731673 -0.299919 -16.846031 0 CFG=1
M  V30 35 C 6.904311 4.258837 -13.053461 0
M  V30 36 C 7.544461 3.000094 -15.207012 0
M  V30 37 H 8.187392 5.972133 -14.933319 0
M  V30 38 H 9.801691 5.353274 -14.614036 0
M  V30 39 H 8.182718 -3.041125 -18.302933 0
M  V30 40 H 6.168725 -0.232881 -20.763400 0
M  V30 41 H 8.993151 3.981067 -12.795035 0
M  V30 42 H 9.033492 1.258829 -17.531332 0
M  V30 43 H 10.698957 1.711394 -17.712672 0
M  V30 44 H 5.596446 0.165146 -18.622499 0
M  V30 45 H 6.973791 1.160732 -18.449331 0
M  V30 46 H 6.513958 0.463678 -14.823250 0
M  V30 47 H 5.375387 1.137704 -15.985000 0
M  V30 48 H 8.081862 3.990226 -10.157228 0
M  V30 49 H 9.775356 3.692305 -10.701253 0
M  V30 50 H 5.775667 2.658023 -13.984450 0
M  V30 51 H 7.814283 2.348593 -20.111119 0
M  V30 52 H 8.961519 3.467704 -20.847028 0
M  V30 53 H 9.783149 5.481400 -18.106470 0
M  V30 54 H 8.956873 9.364053 -12.036545 0
M  V30 55 H 9.971657 8.591332 -8.697462 0
M  V30 56 H 5.828294 -2.175894 -19.601824 0
M  V30 57 H 7.321371 -2.660223 -20.370125 0
M  V30 58 H 8.277017 7.534557 -13.575630 0
M  V30 59 H 9.276817 -1.163749 -18.296040 0
M  V30 60 H 9.387579 -1.399402 -19.999694 0
M  V30 61 H 10.658423 1.778551 -21.004096 0
M  V30 62 H 9.232221 0.887287 -21.485715 0
M  V30 63 H 6.083997 -2.102947 -17.062237 0
M  V30 64 H 10.904806 0.243841 -19.399779 0
M  V30 65 H 7.865885 5.099987 -19.698449 0
M  V30 66 H 6.697979 5.009230 -18.283874 0
M  V30 67 H 11.567212 6.203780 -8.835171 0
M  V30 68 H 10.575416 4.353319 -8.466504 0
M  V30 69 H 8.910916 4.486073 -7.974365 0
M  V30 70 H 7.722070 -0.691411 -16.612795 0
M  V30 71 H 6.590022 4.075265 -12.026102 0
M  V30 72 H 6.216560 4.999875 -13.462177 0
M  V30 73 H 7.284652 2.146383 -13.273440 0
M  V30 74 H 7.726725 1.983352 -16.984939 0
M  V30 END ATOM
M  V30 BEGIN BOND
M  V30 1 1 7 2
M  V30 2 1 8 1
M  V30 3 1 8 2
M  V30 4 1 10 9
M  V30 5 1 12 1
M  V30 6 1 12 10
M  V30 7 1 13 3
M  V30 8 1 14 6
M  V30 9 1 17 10
M  V30 10 1 18 1
M  V30 11 1 18 12
M  V30 12 1 19 15
M  V30 13 1 20 15
M  V30 14 1 21 4
M  V30 15 2 22 6
M  V30 16 1 22 7
M  V30 17 2 23 19
M  V30 18 1 23 22
M  V30 19 1 25 17
M  V30 20 1 26 5 CFG=3
M  V30 21 1 26 11
M  V30 22 1 26 21
M  V30 23 1 26 24
M  V30 24 1 29 9
M  V30 25 1 29 24
M  V30 26 1 29 25
M  V30 27 1 30 6
M  V30 28 2 30 15
M  V30 29 1 30 28
M  V30 30 1 12 31 CFG=1
M  V30 31 1 31 18
M  V30 32 1 32 28
M  V30 33 1 33 14
M  V30 34 1 33 28
M  V30 35 1 34 11
M  V30 36 1 34 13
M  V30 37 1 34 27
M  V30 38 1 35 7
M  V30 39 1 35 16
M  V30 40 1 36 3
M  V30 41 2 36 8
M  V30 42 1 36 16
M  V30 43 1 37 2
M  V30 44 1 38 2
M  V30 45 1 39 4
M  V30 46 1 40 5
M  V30 47 1 7 41 CFG=1
M  V30 48 1 42 9
M  V30 49 1 43 9
M  V30 50 1 44 11
M  V30 51 1 45 11
M  V30 52 1 46 13
M  V30 53 1 47 13
M  V30 54 1 48 14
M  V30 55 1 49 14
M  V30 56 1 50 16
M  V30 57 1 51 17
M  V30 58 1 52 17
M  V30 59 1 18 53 CFG=3
M  V30 60 1 54 19
M  V30 61 1 55 20
M  V30 62 1 56 21
M  V30 63 1 57 21
M  V30 64 1 58 23
M  V30 65 1 59 24
M  V30 66 1 60 24
M  V30 67 1 61 25
M  V30 68 1 62 25
M  V30 69 1 63 27
M  V30 70 1 29 64 CFG=3
M  V30 71 1 65 31
M  V30 72 1 66 31
M  V30 73 1 67 32
M  V30 74 1 68 33
M  V30 75 1 69 33
M  V30 76 1 34 70 CFG=1
M  V30 77 1 71 35
M  V30 78 1 72 35
M  V30 79 1 73 16
M  V30 80 1 74 3
M  V30 END BOND
M  V30 END CTAB
M  END
>  <i_epik_Tot_Q>  (1) 
0

>  <i_epik_Tot_abs_Q>  (1) 
0

>  <i_i_glide_confnum>  (1) 
9

>  <i_i_glide_lignum>  (1) 
146

>  <i_i_glide_posenum>  (1) 
299

>  <i_i_glide_rotatable_bonds>  (1) 
7

>  <i_lp_mmshare_version>  (1) 
72125

>  <i_m_source_file_index>  (1) 
83

>  <i_f3d_flags>  (1) 
0

>  <num_sample>  (1) 
100

>  <b_lp_Chiralities_Consistent>  (1) 
1

>  <r_epik_Charging_Adjusted_Penalty>  (1) 
8.6093729987814029e-06

>  <r_epik_Ionization_Penalty>  (1) 
4.205837022639483

>  <r_epik_Ionization_Penalty_Charging>  (1) 
8.6093729987814029e-06

>  <r_epik_Ionization_Penalty_Neutral>  (1) 
4.2058284132664845

>  <r_epik_State_Penalty>  (1) 
-0

>  <r_glide_ring_energy>  (1) 
0

>  <r_i_docking_score>  (1) 
-2.9796106545852856

>  <r_i_glide_ecoul>  (1) 
-0.73433920841299294

>  <r_i_glide_eff_state_penalty>  (1) 
-0

>  <r_i_glide_einternal>  (1) 
6.3613667295252077

>  <r_i_glide_emodel>  (1) 
-18.20101350834641

>  <r_i_glide_emodel_strain>  (1) 
0.13740532679261719

>  <r_i_glide_energy>  (1) 
-20.984449415110472

>  <r_i_glide_erotb>  (1) 
0.16415830312656554

>  <r_i_glide_esite>  (1) 
-0.064824761832637065

>  <r_i_glide_evdw>  (1) 
-20.250110206697478

>  <r_i_glide_gscore>  (1) 
-2.9796106545852856

>  <r_i_glide_gscore_strain>  (1) 
0

>  <r_i_glide_hbond>  (1) 
0

>  <r_i_glide_ligand_efficiency>  (1) 
-0.082766962627369045

>  <r_i_glide_ligand_efficiency_ln>  (1) 
-0.65007054505351802

>  <r_i_glide_ligand_efficiency_sa>  (1) 
-0.27329048920755311

>  <r_i_glide_lipo>  (1) 
-1.2074217371827434

>  <r_i_glide_metal>  (1) 
-0

>  <r_i_glide_rewards>  (1) 
-0.74886606709964831

>  <r_lp_Energy>  (1) 
33.143476

>  <r_lp_tautomer_probability>  (1) 
1

>  <s_epik_Chemistry_Notes>  (1) 
This compound has an imine and may undergo hydrolysis. This compound has a N-S or N-O group and may undergo hydrolysis at high or low pH.

>  <s_epik_cmdline>  (1) 
J2VwaWtfcHl0aG9uJywgJy1waHQnLCAnMS4wJywgJy1waCcsICc3LjQnLCAnLXRuJywgJzgnLCAnLW1hJywgJzUwMCcsICctaW1hZScsICc8aW5maWxlLm1hZT4nLCAnLW9tYWUnLCAnPG91dGZpbGUubWFlPic=

>  <s_epik_input>  (1) 
W0NIMl0xW0NIMl1OMltDSDJdW0NASF0xW0NIMl1bQ0BAXShbT0hdKShbQ0gyXVtPSF0pW0NIMl1bQ0BIXShbT0hdKVtDSDJdL049QyhcW0NAQEhdM04oQzI0NSlbQ0BASF00W0NIMl01KVtDSDJdW0NIMl1bQ0BASF0oW0NIMl0zKWM2W2NIXVtjSF1jKFtPSF0pYyhjNjcpTihbT0hdKVtDSDJdW0NIMl03

>  <s_glide_docking_method>  (1) 
confgen

>  <s_i_glide_gridfile>  (1) 
gpcr_drd2_6luq_protein_autoprepared_prepared

>  <s_lp_Force_Field>  (1) 
S-OPLS

>  <s_lp_Variant>  (1) 
DiffSBDD_82-1

>  <s_m_source_file>  (1) 
generated_generic_title2_ligand_DiffSBDD_2026-06-23_prepared.sdf

>  <GenAI_Model>  (1) 
DiffSBDD

>  <Protein>  (1) 
generic_title2

$$$$
DiffSBDD_3
     RDKit          3D

  0  0  0  0  0  0  0  0  0  0999 V3000
M  V30 BEGIN CTAB
M  V30 COUNTS 88 96 0 0 1
M  V30 BEGIN ATOM
M  V30 1 C 7.327392 1.351599 -16.265991 0
M  V30 2 O 9.016950 2.330943 -20.849439 0
M  V30 3 C 3.011094 11.356361 -22.235428 0
M  V30 4 C 6.225058 6.744950 -19.060668 0
M  V30 5 C 5.589413 -2.680435 -18.431314 0
M  V30 6 C 7.802575 4.069752 -22.047743 0 CFG=2
M  V30 7 C 4.932576 -2.749299 -19.777091 0
M  V30 8 C 3.915501 9.215128 -21.013047 0 CFG=2
M  V30 9 O 8.984151 4.054278 -22.821348 0
M  V30 10 C 3.276717 8.790191 -22.299714 0
M  V30 11 C 7.951917 6.432274 -21.163241 0 CFG=2
M  V30 12 C 8.238046 -0.833545 -16.984641 0
M  V30 13 C 10.003273 2.979035 -20.053251 0
M  V30 14 C 8.349490 -1.548894 -19.388736 0
M  V30 15 C 7.774878 3.027756 -20.947993 0 CFG=2
M  V30 16 C 8.140768 -2.027082 -17.937818 0 CFG=2
M  V30 17 C 5.245927 10.283924 -23.046538 0 CFG=2
M  V30 18 C 7.127280 0.197196 -17.277776 0 CFG=1
M  V30 19 C 6.961892 3.141810 -19.663374 0
M  V30 20 C 4.634450 -3.803569 -18.710987 0
M  V30 21 C 7.060479 2.769237 -22.261425 0
M  V30 22 C 6.274405 8.446469 -21.573667 0 CFG=2
M  V30 23 C 7.546429 6.955886 -19.801351 0 CFG=1
M  V30 24 C 5.619648 -1.959796 -17.160488 0 CFG=2
M  V30 25 C 7.430906 -0.379871 -19.788023 0
M  V30 26 C 5.534417 11.685072 -23.588087 0
M  V30 27 C 7.573655 7.895019 -20.998408 0 CFG=1
M  V30 28 C 5.714051 -0.438666 -17.062921 0
M  V30 29 C 3.949500 10.149176 -22.217636 0 CFG=1
M  V30 30 C 7.348233 0.738691 -18.727170 0 CFG=1
M  V30 31 C 6.335149 1.825155 -19.175918 0
M  V30 32 F 2.434220 11.512384 -23.426643 0
M  V30 33 C 6.858332 -2.813805 -17.688388 0 CFG=1
M  V30 34 C 7.140925 5.434284 -21.979860 0
M  V30 35 C 4.964682 7.251938 -19.787101 0
M  V30 36 C 6.497960 9.778474 -22.300223 0
M  V30 37 C 5.202930 8.602160 -20.479117 0 CFG=2
M  V30 38 H 7.275768 0.988150 -15.238741 0
M  V30 39 H 8.301253 1.827803 -16.387473 0
M  V30 40 H 6.575311 2.131473 -16.362781 0
M  V30 41 H 2.203591 11.221235 -21.514846 0
M  V30 42 H 3.525437 12.281761 -21.984776 0
M  V30 43 H 6.117043 5.701647 -18.777178 0
M  V30 44 H 6.300746 7.281518 -18.115012 0
M  V30 45 H 4.175410 -1.997046 -19.985349 0
M  V30 46 H 5.549186 -3.045497 -20.623093 0
M  V30 47 H 3.214835 9.473706 -20.220993 0
M  V30 48 H 9.479088 3.298357 -22.534906 0
M  V30 49 H 3.756508 8.002619 -22.876102 0
M  V30 50 H 2.193757 8.812629 -22.384985 0
M  V30 51 H 9.022003 6.286963 -21.301614 0
M  V30 52 H 8.176381 -1.181156 -15.956051 0
M  V30 53 H 9.221702 -0.371698 -17.081566 0
M  V30 54 H 10.939526 2.425065 -20.121438 0
M  V30 55 H 10.193686 3.998331 -20.390866 0
M  V30 56 H 9.724806 3.013574 -19.000549 0
M  V30 57 H 8.231449 -2.378878 -20.086081 0
M  V30 58 H 9.381269 -1.210196 -19.492976 0
M  V30 59 H 8.958950 -2.702412 -17.685182 0
M  V30 60 H 5.118745 9.642573 -23.919003 0
M  V30 61 H 7.554453 3.608350 -18.877426 0
M  V30 62 H 6.133519 3.818378 -19.860408 0
M  V30 63 H 5.054861 -4.797252 -18.848519 0
M  V30 64 H 3.661456 -3.770445 -18.224229 0
M  V30 65 H 5.972949 2.807655 -22.259354 0
M  V30 66 H 7.491131 2.020522 -22.924433 0
M  V30 67 H 5.917630 7.736072 -22.316628 0
M  V30 68 H 8.384348 7.031502 -19.110127 0
M  V30 69 H 5.001193 -2.403893 -16.385071 0
M  V30 70 H 6.431090 -0.737099 -20.003160 0
M  V30 71 H 7.783173 0.033412 -20.732683 0
M  V30 72 H 5.631161 12.390232 -22.785025 0
M  V30 73 H 6.476503 11.711266 -24.131028 0
M  V30 74 H 4.734955 12.051041 -24.221706 0
M  V30 75 H 8.404067 8.597867 -21.025646 0
M  V30 76 H 5.362740 -0.186256 -16.061459 0
M  V30 77 H 4.971435 -0.010886 -17.734530 0
M  V30 78 H 8.334847 1.196332 -18.704096 0
M  V30 79 H 5.654595 2.074929 -18.364360 0
M  V30 80 H 5.679968 1.434825 -19.955551 0
M  V30 81 H 7.019932 -3.765996 -17.185278 0
M  V30 82 H 7.038337 5.810440 -22.997963 0
M  V30 83 H 6.136467 5.334379 -21.577800 0
M  V30 84 H 4.614240 6.520194 -20.514085 0
M  V30 85 H 4.163671 7.349299 -19.054708 0
M  V30 86 H 7.313393 9.666144 -23.017200 0
M  V30 87 H 6.835214 10.528103 -21.585026 0
M  V30 88 H 5.580442 9.298958 -19.729716 0
M  V30 END ATOM
M  V30 BEGIN BOND
M  V30 1 1 7 5
M  V30 2 1 6 9 CFG=3
M  V30 3 1 10 8
M  V30 4 1 13 2
M  V30 5 1 15 2 CFG=1
M  V30 6 1 15 6
M  V30 7 1 16 12
M  V30 8 1 16 14
M  V30 9 1 18 1 CFG=1
M  V30 10 1 18 12
M  V30 11 1 19 15
M  V30 12 1 20 5
M  V30 13 1 20 7
M  V30 14 1 21 6
M  V30 15 1 21 15
M  V30 16 1 23 4
M  V30 17 1 23 11
M  V30 18 1 24 5
M  V30 19 1 25 14
M  V30 20 1 26 17
M  V30 21 1 27 11
M  V30 22 1 27 22
M  V30 23 1 27 23
M  V30 24 1 28 18
M  V30 25 1 28 24
M  V30 26 1 29 3 CFG=1
M  V30 27 1 29 8
M  V30 28 1 29 10
M  V30 29 1 29 17
M  V30 30 1 30 18
M  V30 31 1 30 25
M  V30 32 1 31 19
M  V30 33 1 31 30
M  V30 34 1 32 3
M  V30 35 1 33 5
M  V30 36 1 33 16
M  V30 37 1 33 24
M  V30 38 1 34 6
M  V30 39 1 34 11
M  V30 40 1 35 4
M  V30 41 1 36 17
M  V30 42 1 36 22
M  V30 43 1 37 8
M  V30 44 1 37 22
M  V30 45 1 37 35
M  V30 46 1 38 1
M  V30 47 1 39 1
M  V30 48 1 40 1
M  V30 49 1 41 3
M  V30 50 1 42 3
M  V30 51 1 43 4
M  V30 52 1 44 4
M  V30 53 1 45 7
M  V30 54 1 46 7
M  V30 55 1 8 47 CFG=1
M  V30 56 1 48 9
M  V30 57 1 49 10
M  V30 58 1 50 10
M  V30 59 1 11 51 CFG=1
M  V30 60 1 52 12
M  V30 61 1 53 12
M  V30 62 1 54 13
M  V30 63 1 55 13
M  V30 64 1 56 13
M  V30 65 1 57 14
M  V30 66 1 58 14
M  V30 67 1 16 59 CFG=1
M  V30 68 1 17 60 CFG=3
M  V30 69 1 61 19
M  V30 70 1 62 19
M  V30 71 1 63 20
M  V30 72 1 64 20
M  V30 73 1 65 21
M  V30 74 1 66 21
M  V30 75 1 22 67 CFG=3
M  V30 76 1 23 68 CFG=1
M  V30 77 1 24 69 CFG=1
M  V30 78 1 70 25
M  V30 79 1 71 25
M  V30 80 1 72 26
M  V30 81 1 73 26
M  V30 82 1 74 26
M  V30 83 1 27 75 CFG=1
M  V30 84 1 76 28
M  V30 85 1 77 28
M  V30 86 1 30 78 CFG=1
M  V30 87 1 79 31
M  V30 88 1 80 31
M  V30 89 1 33 81 CFG=1
M  V30 90 1 82 34
M  V30 91 1 83 34
M  V30 92 1 84 35
M  V30 93 1 85 35
M  V30 94 1 86 36
M  V30 95 1 87 36
M  V30 96 1 37 88 CFG=1
M  V30 END BOND
M  V30 END CTAB
M  END
>  <i_epik_Tot_Q>  (1) 
0

>  <i_epik_Tot_abs_Q>  (1) 
0

>  <i_i_glide_confnum>  (1) 
124

>  <i_i_glide_lignum>  (1) 
7

>  <i_i_glide_posenum>  (1) 
118

>  <i_i_glide_rotatable_bonds>  (1) 
8

>  <i_lp_mmshare_version>  (1) 
72125

>  <i_m_source_file_index>  (1) 
4

>  <i_f3d_flags>  (1) 
0

>  <num_sample>  (1) 
100

>  <b_lp_Chiralities_Consistent>  (1) 
1

>  <r_epik_Charging_Adjusted_Penalty>  (1) 
0

>  <r_epik_Ionization_Penalty>  (1) 
4.4190122057335124e-08

>  <r_epik_Ionization_Penalty_Charging>  (1) 
0

>  <r_epik_Ionization_Penalty_Neutral>  (1) 
4.4190122057335124e-08

>  <r_epik_State_Penalty>  (1) 
-0

>  <r_glide_ring_energy>  (1) 
0

>  <r_i_docking_score>  (1) 
-2.9336705045253257

>  <r_i_glide_ecoul>  (1) 
1.0090219837814887

>  <r_i_glide_eff_state_penalty>  (1) 
-0

>  <r_i_glide_einternal>  (1) 
42.786882894346832

>  <r_i_glide_emodel>  (1) 
-7.6620639336313516

>  <r_i_glide_emodel_strain>  (1) 
0.038281152477168234

>  <r_i_glide_energy>  (1) 
-25.059785327311005

>  <r_i_glide_erotb>  (1) 
0.39265675438420033

>  <r_i_glide_esite>  (1) 
0

>  <r_i_glide_evdw>  (1) 
-26.068807311092492

>  <r_i_glide_gscore>  (1) 
-2.9336705045253257

>  <r_i_glide_gscore_strain>  (1) 
0

>  <r_i_glide_hbond>  (1) 
0

>  <r_i_glide_ligand_efficiency>  (1) 
-0.079288392014197989

>  <r_i_glide_ligand_efficiency_ln>  (1) 
-0.63624435743705388

>  <r_i_glide_ligand_efficiency_sa>  (1) 
-0.26420651245158111

>  <r_i_glide_lipo>  (1) 
-1.9642056051643735

>  <r_i_glide_metal>  (1) 
-0

>  <r_i_glide_rewards>  (1) 
-0.21003458575775116

>  <r_lp_Energy>  (1) 
90.289001999999996

>  <r_lp_tautomer_probability>  (1) 
1

>  <s_epik_cmdline>  (1) 
J2VwaWtfcHl0aG9uJywgJy1waHQnLCAnMS4wJywgJy1waCcsICc3LjQnLCAnLXRuJywgJzgnLCAnLW1hJywgJzUwMCcsICctaW1hZScsICc8aW5maWxlLm1hZT4nLCAnLW9tYWUnLCAnPG91dGZpbGUubWFlPic=

>  <s_epik_input>  (1) 
W0NIMl0xW0NIMl1DMTJbQ0BIXTNbQ0BASF0yW0NAQEhdNFtDSDJdW0NAXShbQ0gzXSkoW0NIMl0zKVtDQEBIXShbQ0gyXVtDSDJdNClbQ0gyXVtDSDJdW0NAXShbQ0gyXTUpKE9bQ0gzXSlbQ0BdNShbT0hdKVtDSDJdW0NAQEhdNltDQEhdKFtDSDJdW0NIMl03KVtDQEBIXTZbQ0BIXShbQ0gyXVtDQEBIXThbQ0gzXSlbQ0BIXTdbQ0BIXShbQ0gyXTkpW0NAQF04OVtDSDJdRg==

>  <s_glide_docking_method>  (1) 
confgen

>  <s_i_glide_gridfile>  (1) 
gpcr_drd2_6luq_protein_autoprepared_prepared

>  <s_lp_Force_Field>  (1) 
S-OPLS

>  <s_lp_Variant>  (1) 
DiffSBDD_3-1

>  <s_m_source_file>  (1) 
generated_generic_title2_ligand_DiffSBDD_2026-06-23_prepared.sdf

>  <GenAI_Model>  (1) 
DiffSBDD

>  <Protein>  (1) 
generic_title2

$$$$
DiffSBDD_45
     RDKit          3D

  0  0  0  0  0  0  0  0  0  0999 V3000
M  V30 BEGIN CTAB
M  V30 COUNTS 68 71 0 0 1
M  V30 BEGIN ATOM
M  V30 1 C 11.198619 7.879051 -7.935400 0 CFG=2
M  V30 2 C 13.214183 9.714535 -4.666315 0
M  V30 3 C 5.758627 6.941192 -15.111412 0 CFG=2
M  V30 4 C 10.477329 6.646394 -8.416545 0
M  V30 5 C 10.273543 8.773783 -7.076507 0 CFG=2
M  V30 6 C 3.176118 6.506199 -17.013901 0
M  V30 7 C 9.660743 7.806406 -10.499580 0
M  V30 8 O 11.804593 8.690549 -8.934076 0
M  V30 9 C 11.040349 9.732783 -6.112258 0
M  V30 10 N 5.642181 6.996525 -16.576798 0
M  V30 11 C 5.038356 6.558095 -18.737022 0
M  V30 12 C 7.657702 5.230095 -12.074410 0
M  V30 13 C 8.465722 5.896948 -11.240570 0
M  V30 14 C 8.338144 7.804292 -12.577274 0
M  V30 15 C 5.291932 8.046451 -18.659236 0
M  V30 16 N 8.825219 7.187273 -11.458548 0
M  V30 17 O 6.905167 4.424722 -15.295092 0
M  V30 18 C 4.657811 6.211967 -17.307376 0 CFG=2
M  V30 19 N 7.144627 5.851660 -13.216340 0
M  V30 20 O 9.280245 8.061042 -6.383011 0
M  V30 21 C 5.424397 8.321398 -17.128775 0
M  V30 22 C 11.438983 8.187254 -4.074949 0
M  V30 23 C 12.028240 8.996280 -5.209752 0
M  V30 24 C 9.050273 5.341882 -10.014914 0
M  V30 25 C 12.921781 8.078522 -9.554980 0
M  V30 26 C 7.001653 7.728278 -14.683775 0
M  V30 27 C 9.788734 6.605392 -9.555940 0
M  V30 28 O 4.975485 4.714984 -13.616263 0
M  V30 29 S 6.105606 5.252338 -14.379486 0
M  V30 30 C 7.526476 7.171820 -13.434183 0
M  V30 31 C 10.566816 5.454901 -7.505913 0
M  V30 32 H 12.006183 7.411383 -7.394235 0
M  V30 33 H 12.926619 10.389933 -3.884714 0
M  V30 34 H 13.774786 8.961157 -4.146587 0
M  V30 35 H 13.848430 10.152646 -5.439891 0
M  V30 36 H 4.947203 7.402764 -14.575791 0
M  V30 37 H 9.607038 9.256472 -7.775915 0
M  V30 38 H 2.683992 5.674977 -16.524341 0
M  V30 39 H 2.653585 6.686361 -17.954393 0
M  V30 40 H 2.991606 7.377393 -16.387659 0
M  V30 41 H 9.169489 8.657096 -10.029576 0
M  V30 42 H 10.599544 8.101060 -10.959111 0
M  V30 43 H 11.599971 10.454940 -6.711625 0
M  V30 44 H 10.389948 10.316838 -5.468366 0
M  V30 45 H 4.302681 6.270019 -19.481474 0
M  V30 46 H 5.969543 6.049182 -18.986821 0
M  V30 47 H 7.347401 4.206900 -11.935691 0
M  V30 48 H 8.672914 8.822184 -12.712440 0
M  V30 49 H 4.467541 8.588969 -19.121119 0
M  V30 50 H 6.171580 8.255883 -19.265745 0
M  V30 51 H 4.878194 5.190224 -17.168546 0
M  V30 52 H 8.704551 7.650908 -7.022004 0
M  V30 53 H 4.512281 8.699740 -16.689800 0
M  V30 54 H 6.174473 9.029919 -16.784516 0
M  V30 55 H 11.083271 8.926412 -3.356082 0
M  V30 56 H 10.654178 7.505461 -4.400627 0
M  V30 57 H 12.183141 7.566462 -3.574158 0
M  V30 58 H 12.540100 8.391006 -5.880295 0
M  V30 59 H 9.720511 4.511341 -10.243574 0
M  V30 60 H 8.266394 5.050424 -9.316203 0
M  V30 61 H 13.370480 8.749055 -10.290169 0
M  V30 62 H 13.696453 7.808132 -8.832950 0
M  V30 63 H 12.574898 7.189081 -10.074946 0
M  V30 64 H 6.995731 8.794544 -14.783804 0
M  V30 65 H 7.844785 7.329620 -15.184993 0
M  V30 66 H 9.966435 5.621273 -6.613197 0
M  V30 67 H 10.192650 4.563839 -7.988444 0
M  V30 68 H 11.585974 5.250437 -7.181346 0
M  V30 END ATOM
M  V30 BEGIN BOND
M  V30 1 1 4 1
M  V30 2 1 5 1
M  V30 3 1 8 1
M  V30 4 1 9 5
M  V30 5 1 10 3
M  V30 6 2 13 12
M  V30 7 1 15 11
M  V30 8 1 16 7
M  V30 9 1 16 13
M  V30 10 1 16 14
M  V30 11 1 18 6
M  V30 12 1 18 10
M  V30 13 1 18 11
M  V30 14 1 19 12
M  V30 15 1 20 5
M  V30 16 1 21 10
M  V30 17 1 21 15
M  V30 18 1 23 2
M  V30 19 1 23 9
M  V30 20 1 23 22
M  V30 21 1 24 13
M  V30 22 1 25 8
M  V30 23 1 26 3
M  V30 24 2 27 4
M  V30 25 1 27 7
M  V30 26 1 27 24
M  V30 27 1 29 3
M  V30 28 2 29 17
M  V30 29 1 29 19
M  V30 30 2 29 28
M  V30 31 2 30 14
M  V30 32 1 30 19
M  V30 33 1 30 26
M  V30 34 1 31 4
M  V30 35 1 1 32 CFG=1
M  V30 36 1 33 2
M  V30 37 1 34 2
M  V30 38 1 35 2
M  V30 39 1 3 36 CFG=1
M  V30 40 1 5 37 CFG=3
M  V30 41 1 38 6
M  V30 42 1 39 6
M  V30 43 1 40 6
M  V30 44 1 41 7
M  V30 45 1 42 7
M  V30 46 1 43 9
M  V30 47 1 44 9
M  V30 48 1 45 11
M  V30 49 1 46 11
M  V30 50 1 47 12
M  V30 51 1 48 14
M  V30 52 1 49 15
M  V30 53 1 50 15
M  V30 54 1 18 51 CFG=3
M  V30 55 1 52 20
M  V30 56 1 53 21
M  V30 57 1 54 21
M  V30 58 1 55 22
M  V30 59 1 56 22
M  V30 60 1 57 22
M  V30 61 1 58 23
M  V30 62 1 59 24
M  V30 63 1 60 24
M  V30 64 1 61 25
M  V30 65 1 62 25
M  V30 66 1 63 25
M  V30 67 1 64 26
M  V30 68 1 65 26
M  V30 69 1 66 31
M  V30 70 1 67 31
M  V30 71 1 68 31
M  V30 END BOND
M  V30 END CTAB
M  END
>  <i_epik_Tot_Q>  (1) 
0

>  <i_epik_Tot_abs_Q>  (1) 
0

>  <i_i_glide_confnum>  (1) 
22

>  <i_i_glide_lignum>  (1) 
74

>  <i_i_glide_posenum>  (1) 
16

>  <i_i_glide_rotatable_bonds>  (1) 
7

>  <i_lp_mmshare_version>  (1) 
72125

>  <i_m_source_file_index>  (1) 
46

>  <i_f3d_flags>  (1) 
0

>  <num_sample>  (1) 
100

>  <b_lp_Chiralities_Consistent>  (1) 
1

>  <r_epik_Charging_Adjusted_Penalty>  (1) 
5.5386030856760706e-14

>  <r_epik_Ionization_Penalty>  (1) 
0.0003901755545231811

>  <r_epik_Ionization_Penalty_Charging>  (1) 
5.5386030856760706e-14

>  <r_epik_Ionization_Penalty_Neutral>  (1) 
0.00039017555446779507

>  <r_epik_State_Penalty>  (1) 
-0

>  <r_glide_ring_energy>  (1) 
2.2033446951546671

>  <r_i_docking_score>  (1) 
-2.9307422061740804

>  <r_i_glide_ecoul>  (1) 
0.029838534551764218

>  <r_i_glide_eff_state_penalty>  (1) 
-0

>  <r_i_glide_einternal>  (1) 
4.2186284748731104

>  <r_i_glide_emodel>  (1) 
0.75114638609617224

>  <r_i_glide_emodel_strain>  (1) 
5.1262296567401364

>  <r_i_glide_energy>  (1) 
-2.5775744412479682

>  <r_i_glide_erotb>  (1) 
0.39335991316148761

>  <r_i_glide_esite>  (1) 
-0.094839694470691169

>  <r_i_glide_evdw>  (1) 
-2.6074129757997326

>  <r_i_glide_gscore>  (1) 
-2.9307422061740804

>  <r_i_glide_gscore_strain>  (1) 
0.28155741418503411

>  <r_i_glide_hbond>  (1) 
0

>  <r_i_glide_ligand_efficiency>  (1) 
-0.094540071166905826

>  <r_i_glide_ligand_efficiency_ln>  (1) 
-0.66097218395432522

>  <r_i_glide_ligand_efficiency_sa>  (1) 
-0.2969863504394234

>  <r_i_glide_lipo>  (1) 
-2.5326713492562347

>  <r_i_glide_metal>  (1) 
-0

>  <r_i_glide_rewards>  (1) 
-0.85225362118645487

>  <r_lp_Energy>  (1) 
32.319353999999997

>  <r_lp_tautomer_probability>  (1) 
1

>  <s_epik_Chemistry_Notes>  (1) 
This compound has an imine and may undergo hydrolysis.

>  <s_epik_cmdline>  (1) 
J2VwaWtfcHl0aG9uJywgJy1waHQnLCAnMS4wJywgJy1waCcsICc3LjQnLCAnLXRuJywgJzgnLCAnLW1hJywgJzUwMCcsICctaW1hZScsICc8aW5maWxlLm1hZT4nLCAnLW9tYWUnLCAnPG91dGZpbGUubWFlPic=

>  <s_epik_input>  (1) 
W0NIM11bQ0hdKFtDSDNdKVtDSDJdW0NASF0oW09IXSlbQ0BIXShPW0NIM10pL0MoW0NIM10pPUMoW0NIMl0xKVxbQ0gyXU4oQzEyKVtDSF09QzNOKFtDSF09MilTKD1PKSg9TylbQ0BASF0oW0NIMl0zKU40W0NAQEhdKFtDSDNdKVtDSDJdW0NIMl1bQ0gyXTQ=

>  <s_glide_docking_method>  (1) 
confgen

>  <s_i_glide_gridfile>  (1) 
gpcr_drd2_6luq_protein_autoprepared_prepared

>  <s_lp_Force_Field>  (1) 
S-OPLS

>  <s_lp_Variant>  (1) 
DiffSBDD_45-2

>  <s_m_source_file>  (1) 
generated_generic_title2_ligand_DiffSBDD_2026-06-23_prepared.sdf

>  <GenAI_Model>  (1) 
DiffSBDD

>  <Protein>  (1) 
generic_title2

$$$$
DiffSBDD_64
     RDKit          3D

  0  0  0  0  0  0  0  0  0  0999 V3000
M  V30 BEGIN CTAB
M  V30 COUNTS 77 80 0 0 1
M  V30 BEGIN ATOM
M  V30 1 C 6.370153 0.008470 -17.467241 0
M  V30 2 C 15.139809 5.276230 -16.836651 0
M  V30 3 C 5.237418 -2.251322 -17.337851 0 CFG=2
M  V30 4 C 9.733814 3.618312 -18.734782 0
M  V30 5 C 15.607394 6.497483 -20.238585 0
M  V30 6 C 4.680453 -4.751462 -17.880290 0
M  V30 7 C 9.191153 3.133638 -17.381053 0 CFG=1
M  V30 8 O 17.209834 6.355469 -17.185031 0
M  V30 9 C 6.932983 -3.605374 -18.385002 0
M  V30 10 C 4.274278 -1.825004 -18.472236 0
M  V30 11 C 11.180370 4.132823 -18.600913 0
M  V30 12 C 16.788035 5.532544 -20.229854 0
M  V30 13 C 16.659857 4.814149 -18.887033 0
M  V30 14 C 7.855243 -1.521997 -19.508620 0
M  V30 15 N 6.501578 -1.469730 -17.322471 0 CFG=1 CHG=1
M  V30 16 C 7.711108 0.746853 -15.421323 0
M  V30 17 C 16.092573 5.864466 -17.903213 0 CFG=1
M  V30 18 C 5.725166 -3.706235 -17.454191 0 CFG=1
M  V30 19 C 7.504431 -2.192221 -18.161850 0 CFG=1
M  V30 20 C 9.285757 4.297798 -16.385018 0
M  V30 21 C 10.738227 4.790232 -16.263915 0
M  V30 22 C 13.788663 4.743403 -17.348888 0
M  V30 23 C 12.908430 6.853168 -18.546072 0
M  V30 24 C 14.199051 7.684133 -18.388014 0
M  V30 25 C 15.535387 7.014184 -18.792369 0 CFG=2
M  V30 26 S 7.482242 2.525072 -17.532344 0
M  V30 27 N 11.301855 5.210556 -17.573264 0 CFG=1 CHG=1
M  V30 28 C 12.668973 5.809749 -17.439156 0 CFG=1
M  V30 29 C 7.595862 0.799201 -16.953112 0 CFG=2
M  V30 30 H 5.493875 0.337656 -16.906185 0
M  V30 31 H 6.163724 0.260913 -18.507874 0
M  V30 32 H 15.660337 4.452246 -16.345788 0
M  V30 33 H 14.961135 6.004036 -16.043706 0
M  V30 34 H 4.725692 -2.105588 -16.385268 0
M  V30 35 H 9.700342 2.804849 -19.460545 0
M  V30 36 H 9.095108 4.409217 -19.130992 0
M  V30 37 H 15.733088 7.302470 -20.963682 0
M  V30 38 H 14.714030 5.941025 -20.515258 0
M  V30 39 H 4.313811 -4.580169 -18.892528 0
M  V30 40 H 5.105697 -5.754832 -17.852500 0
M  V30 41 H 3.823761 -4.742196 -17.204649 0
M  V30 42 H 9.813731 2.311479 -17.025920 0
M  V30 43 H 16.939355 7.103752 -16.675959 0
M  V30 44 H 6.608158 -3.728837 -19.419394 0
M  V30 45 H 7.669951 -4.383987 -18.183736 0
M  V30 46 H 4.733316 -1.915591 -19.456347 0
M  V30 47 H 3.931777 -0.796940 -18.355361 0
M  V30 48 H 3.375415 -2.441491 -18.475990 0
M  V30 49 H 11.526413 4.498270 -19.567828 0
M  V30 50 H 11.815223 3.286344 -18.337431 0
M  V30 51 H 17.724355 6.091639 -20.262825 0
M  V30 52 H 16.778287 4.846192 -21.077010 0
M  V30 53 H 17.612435 4.390233 -18.566410 0
M  V30 54 H 15.974816 3.976181 -19.007143 0
M  V30 55 H 6.971986 -1.379296 -20.131656 0
M  V30 56 H 8.550131 -2.145187 -20.072511 0
M  V30 57 H 8.337247 -0.553546 -19.387626 0
M  V30 58 H 7.824542 -0.277222 -15.063609 0
M  V30 59 H 8.575407 1.308531 -15.068425 0
M  V30 60 H 6.827120 1.169893 -14.942524 0
M  V30 61 H 6.092319 -4.009767 -16.472650 0
M  V30 62 H 8.414788 -2.267997 -17.564783 0
M  V30 63 H 8.920474 3.990210 -15.404871 0
M  V30 64 H 8.641397 5.118567 -16.703955 0
M  V30 65 H 11.362718 3.990228 -15.879741 0
M  V30 66 H 10.783166 5.608114 -15.544167 0
M  V30 67 H 13.479080 3.969498 -16.646383 0
M  V30 68 H 13.914823 4.238613 -18.305223 0
M  V30 69 H 12.076515 7.558629 -18.520899 0
M  V30 70 H 12.856581 6.398118 -19.532491 0
M  V30 71 H 14.270946 8.062722 -17.367721 0
M  V30 72 H 14.085721 8.574992 -19.007909 0
M  V30 73 H 16.268008 7.823856 -18.759660 0
M  V30 74 H 12.673082 6.368655 -16.501452 0
M  V30 75 H 8.505787 0.381946 -17.381651 0
M  V30 76 H 10.707454 5.966107 -17.884101 0
M  V30 77 H 6.841056 -1.620352 -16.380436 0
M  V30 END ATOM
M  V30 BEGIN BOND
M  V30 1 1 7 4
M  V30 2 1 10 3
M  V30 3 1 11 4
M  V30 4 1 12 5
M  V30 5 1 13 12
M  V30 6 1 15 1
M  V30 7 1 15 3
M  V30 8 1 17 2
M  V30 9 1 17 8 CFG=1
M  V30 10 1 17 13
M  V30 11 1 18 3
M  V30 12 1 18 6
M  V30 13 1 18 9
M  V30 14 1 19 9
M  V30 15 1 19 14
M  V30 16 1 19 15
M  V30 17 1 20 7
M  V30 18 1 21 20
M  V30 19 1 22 2
M  V30 20 1 24 23
M  V30 21 1 25 5
M  V30 22 1 25 17
M  V30 23 1 25 24
M  V30 24 1 26 7
M  V30 25 1 27 11
M  V30 26 1 27 21
M  V30 27 1 28 22
M  V30 28 1 28 23
M  V30 29 1 28 27
M  V30 30 1 29 1
M  V30 31 1 29 16
M  V30 32 1 29 26
M  V30 33 1 30 1
M  V30 34 1 31 1
M  V30 35 1 32 2
M  V30 36 1 33 2
M  V30 37 1 3 34 CFG=1
M  V30 38 1 35 4
M  V30 39 1 36 4
M  V30 40 1 37 5
M  V30 41 1 38 5
M  V30 42 1 39 6
M  V30 43 1 40 6
M  V30 44 1 41 6
M  V30 45 1 7 42 CFG=1
M  V30 46 1 43 8
M  V30 47 1 44 9
M  V30 48 1 45 9
M  V30 49 1 46 10
M  V30 50 1 47 10
M  V30 51 1 48 10
M  V30 52 1 49 11
M  V30 53 1 50 11
M  V30 54 1 51 12
M  V30 55 1 52 12
M  V30 56 1 53 13
M  V30 57 1 54 13
M  V30 58 1 55 14
M  V30 59 1 56 14
M  V30 60 1 57 14
M  V30 61 1 58 16
M  V30 62 1 59 16
M  V30 63 1 60 16
M  V30 64 1 18 61 CFG=1
M  V30 65 1 19 62 CFG=1
M  V30 66 1 63 20
M  V30 67 1 64 20
M  V30 68 1 65 21
M  V30 69 1 66 21
M  V30 70 1 67 22
M  V30 71 1 68 22
M  V30 72 1 69 23
M  V30 73 1 70 23
M  V30 74 1 71 24
M  V30 75 1 72 24
M  V30 76 1 25 73 CFG=3
M  V30 77 1 28 74 CFG=1
M  V30 78 1 29 75 CFG=3
M  V30 79 1 27 76 CFG=3
M  V30 80 1 15 77 CFG=1
M  V30 END BOND
M  V30 END CTAB
M  END
>  <i_epik_Tot_Q>  (1) 
2

>  <i_epik_Tot_abs_Q>  (1) 
2

>  <i_i_glide_confnum>  (1) 
183

>  <i_i_glide_lignum>  (1) 
104

>  <i_i_glide_posenum>  (1) 
242

>  <i_i_glide_rotatable_bonds>  (1) 
6

>  <i_lp_mmshare_version>  (1) 
72125

>  <i_m_source_file_index>  (1) 
65

>  <i_f3d_flags>  (1) 
0

>  <num_sample>  (1) 
100

>  <b_lp_Chiralities_Consistent>  (1) 
1

>  <r_epik_Charging_Adjusted_Penalty>  (1) 
0.010385271147369776

>  <r_epik_Ionization_Penalty>  (1) 
0.010385491156522124

>  <r_epik_Ionization_Penalty_Charging>  (1) 
0.010385271147369776

>  <r_epik_Ionization_Penalty_Neutral>  (1) 
2.2000915234807092e-07

>  <r_epik_State_Penalty>  (1) 
-0

>  <r_glide_ring_energy>  (1) 
0.15487863939553237

>  <r_i_docking_score>  (1) 
-2.918370753018829

>  <r_i_glide_ecoul>  (1) 
-6.0197081576549447

>  <r_i_glide_eff_state_penalty>  (1) 
-0

>  <r_i_glide_einternal>  (1) 
3.8344902134897438

>  <r_i_glide_emodel>  (1) 
-31.034972854599822

>  <r_i_glide_emodel_strain>  (1) 
0

>  <r_i_glide_energy>  (1) 
-28.536808098684709

>  <r_i_glide_erotb>  (1) 
0.5496323063178965

>  <r_i_glide_esite>  (1) 
-0.0020486731356167669

>  <r_i_glide_evdw>  (1) 
-22.517099941029766

>  <r_i_glide_gscore>  (1) 
-2.918370753018829

>  <r_i_glide_gscore_strain>  (1) 
0

>  <r_i_glide_hbond>  (1) 
0

>  <r_i_glide_ligand_efficiency>  (1) 
-0.10063347424202859

>  <r_i_glide_ligand_efficiency_ln>  (1) 
-0.66823289894421167

>  <r_i_glide_ligand_efficiency_sa>  (1) 
-0.30917791614100781

>  <r_i_glide_lipo>  (1) 
-0.92399391550137822

>  <r_i_glide_metal>  (1) 
-0

>  <r_i_glide_rewards>  (1) 
-0.51314925000000067

>  <r_lp_Energy>  (1) 
54.489440999999999

>  <r_lp_tautomer_probability>  (1) 
1

>  <s_epik_cmdline>  (1) 
J2VwaWtfcHl0aG9uJywgJy1waHQnLCAnMS4wJywgJy1waCcsICc3LjQnLCAnLXRuJywgJzgnLCAnLW1hJywgJzUwMCcsICctaW1hZScsICc8aW5maWxlLm1hZT4nLCAnLW9tYWUnLCAnPG91dGZpbGUubWFlPic=

>  <s_epik_input>  (1) 
W0NIM11bQ0BIXTFbQ0gyXVtDQEBIXShbQ0gzXSlOKFtDQEhdMVtDSDNdKVtDSDJdW0NASF0oW0NIM10pU1tDSF0yW0NIMl1bQ0gyXU4oW0NIMl1bQ0gyXTIpW0NAQEhdKFtDSDJdW0NIMl0zKVtDSDJdW0NIMl1bQ0BASF0oW0NAQF0zNFtPSF0pW0NIMl1bQ0gyXVtDSDJdNA==

>  <s_glide_docking_method>  (1) 
confgen

>  <s_i_glide_gridfile>  (1) 
gpcr_drd2_6luq_protein_autoprepared_prepared

>  <s_lp_Force_Field>  (1) 
S-OPLS

>  <s_lp_Variant>  (1) 
DiffSBDD_64-3

>  <s_m_source_file>  (1) 
generated_generic_title2_ligand_DiffSBDD_2026-06-23_prepared.sdf

>  <GenAI_Model>  (1) 
DiffSBDD

>  <Protein>  (1) 
generic_title2

$$$$
DiffSBDD_69
     RDKit          3D

  0  0  0  0  0  0  0  0  0  0999 V3000
M  V30 BEGIN CTAB
M  V30 COUNTS 68 71 0 0 1
M  V30 BEGIN ATOM
M  V30 1 C 18.614913 6.579236 -19.188128 0
M  V30 2 C 13.696381 5.468781 -17.931400 0 CFG=1
M  V30 3 C 11.701644 3.009986 -20.872175 0
M  V30 4 C 16.108844 8.006261 -18.235123 0 CFG=1
M  V30 5 C 19.244847 4.370789 -20.404888 0
M  V30 6 C 13.439325 7.760974 -16.719774 0
M  V30 7 F 21.308192 3.212164 -20.384514 0
M  V30 8 C 19.773273 5.702602 -19.833842 0 CFG=1
M  V30 9 C 13.622421 7.034962 -18.070707 0 CFG=1
M  V30 10 C 16.742315 6.777436 -17.584503 0
M  V30 11 C 11.683639 3.061053 -19.350196 0
M  V30 12 S 17.221283 8.945938 -19.318206 0
M  V30 13 C 19.274245 7.876806 -20.844518 0
M  V30 14 C 20.274491 3.520205 -21.164818 0
M  V30 15 C 13.154116 2.574530 -20.749762 0
M  V30 16 C 18.410064 7.741565 -19.800210 0
M  V30 17 C 13.100446 -0.086658 -18.414136 0
M  V30 18 C 13.238972 3.207939 -19.328798 0
M  V30 19 C 20.039812 6.809472 -20.919740 0
M  V30 20 F 19.683476 2.390360 -21.546582 0
M  V30 21 C 12.550285 5.000902 -16.995572 0
M  V30 22 C 13.363374 1.183183 -17.584076 0
M  V30 23 C 14.372731 -0.724848 -18.997712 0
M  V30 24 C 14.759681 7.203380 -20.363288 0
M  V30 25 C 15.187149 4.807512 -19.963761 0
M  V30 26 F 20.715715 4.154614 -22.250277 0
M  V30 27 N 15.560067 5.996227 -20.463994 0
M  V30 28 C 13.768346 4.698838 -19.312233 0 CFG=2
M  V30 29 C 14.716296 7.752268 -18.919049 0 CFG=2
M  V30 30 C 14.063965 2.351095 -18.312514 0
M  V30 31 O 15.923284 3.825128 -20.018195 0
M  V30 32 C 17.847704 6.146026 -18.030009 0
M  V30 33 H 14.602985 5.215920 -17.390257 0
M  V30 34 H 11.038770 2.264715 -21.312979 0
M  V30 35 H 11.584880 3.988802 -21.339494 0
M  V30 36 H 15.931888 8.693791 -17.409546 0
M  V30 37 H 18.845771 3.771928 -19.585339 0
M  V30 38 H 18.397471 4.570769 -21.061993 0
M  V30 39 H 14.171893 7.431459 -15.985062 0
M  V30 40 H 13.533865 8.840937 -16.825355 0
M  V30 41 H 12.448275 7.586041 -16.302481 0
M  V30 42 H 20.621646 5.588181 -19.158265 0
M  V30 43 H 12.693244 7.226883 -18.610028 0
M  V30 44 H 16.238283 6.389819 -16.713563 0
M  V30 45 H 11.290785 2.134342 -18.934253 0
M  V30 46 H 11.116360 3.910925 -18.976134 0
M  V30 47 H 19.324409 8.728843 -21.506860 0
M  V30 48 H 13.801551 3.008783 -21.511341 0
M  V30 49 H 13.255154 1.490398 -20.754108 0
M  V30 50 H 12.616163 -0.809526 -17.758144 0
M  V30 51 H 12.381927 0.105569 -19.209588 0
M  V30 52 H 20.810515 6.676701 -21.664812 0
M  V30 53 H 11.581483 5.368496 -17.332792 0
M  V30 54 H 12.478806 3.923074 -16.886669 0
M  V30 55 H 12.696574 5.361630 -15.978568 0
M  V30 56 H 13.994792 0.893979 -16.743939 0
M  V30 57 H 12.436871 1.527009 -17.125660 0
M  V30 58 H 14.175741 -1.714070 -19.409682 0
M  V30 59 H 14.792574 -0.122277 -19.802433 0
M  V30 60 H 15.145971 -0.840938 -18.240456 0
M  V30 61 H 13.761706 7.074947 -20.782458 0
M  V30 62 H 15.226376 7.938590 -21.018666 0
M  V30 63 H 16.467613 6.074334 -20.898887 0
M  V30 64 H 13.086274 5.226951 -19.974712 0
M  V30 65 H 14.317357 8.759546 -19.056678 0
M  V30 66 H 14.945805 1.943316 -18.802508 0
M  V30 67 H 14.480010 2.981398 -17.529728 0
M  V30 68 H 18.179595 5.266707 -17.499510 0
M  V30 END ATOM
M  V30 BEGIN BOND
M  V30 1 1 8 1
M  V30 2 1 8 5
M  V30 3 1 9 2
M  V30 4 1 9 6
M  V30 5 1 10 4
M  V30 6 1 11 3
M  V30 7 1 12 4
M  V30 8 1 14 5
M  V30 9 1 14 7
M  V30 10 1 15 3
M  V30 11 2 16 1
M  V30 12 1 16 12
M  V30 13 1 16 13
M  V30 14 1 18 11
M  V30 15 1 18 15
M  V30 16 1 19 8
M  V30 17 2 19 13
M  V30 18 1 20 14
M  V30 19 1 21 2
M  V30 20 1 22 17
M  V30 21 1 23 17
M  V30 22 1 26 14
M  V30 23 1 27 24
M  V30 24 1 27 25
M  V30 25 1 28 2
M  V30 26 1 28 18
M  V30 27 1 28 25
M  V30 28 1 29 4
M  V30 29 1 29 9
M  V30 30 1 29 24
M  V30 31 1 30 18
M  V30 32 1 30 22
M  V30 33 2 31 25
M  V30 34 1 32 1
M  V30 35 2 32 10
M  V30 36 1 2 33 CFG=1
M  V30 37 1 34 3
M  V30 38 1 35 3
M  V30 39 1 4 36 CFG=1
M  V30 40 1 37 5
M  V30 41 1 38 5
M  V30 42 1 39 6
M  V30 43 1 40 6
M  V30 44 1 41 6
M  V30 45 1 8 42 CFG=1
M  V30 46 1 9 43 CFG=3
M  V30 47 1 44 10
M  V30 48 1 45 11
M  V30 49 1 46 11
M  V30 50 1 47 13
M  V30 51 1 48 15
M  V30 52 1 49 15
M  V30 53 1 50 17
M  V30 54 1 51 17
M  V30 55 1 52 19
M  V30 56 1 53 21
M  V30 57 1 54 21
M  V30 58 1 55 21
M  V30 59 1 56 22
M  V30 60 1 57 22
M  V30 61 1 58 23
M  V30 62 1 59 23
M  V30 63 1 60 23
M  V30 64 1 61 24
M  V30 65 1 62 24
M  V30 66 1 63 27
M  V30 67 1 28 64 CFG=3
M  V30 68 1 29 65 CFG=3
M  V30 69 1 66 30
M  V30 70 1 67 30
M  V30 71 1 68 32
M  V30 END BOND
M  V30 END CTAB
M  END
>  <i_epik_Tot_Q>  (1) 
0

>  <i_epik_Tot_abs_Q>  (1) 
0

>  <i_i_glide_confnum>  (1) 
123

>  <i_i_glide_lignum>  (1) 
112

>  <i_i_glide_posenum>  (1) 
368

>  <i_i_glide_rotatable_bonds>  (1) 
7

>  <i_lp_mmshare_version>  (1) 
72125

>  <i_m_source_file_index>  (1) 
70

>  <i_f3d_flags>  (1) 
0

>  <num_sample>  (1) 
100

>  <b_lp_Chiralities_Consistent>  (1) 
1

>  <r_epik_Charging_Adjusted_Penalty>  (1) 
0

>  <r_epik_Ionization_Penalty>  (1) 
2.8523950136144186e-08

>  <r_epik_Ionization_Penalty_Charging>  (1) 
0

>  <r_epik_Ionization_Penalty_Neutral>  (1) 
2.8523950136144186e-08

>  <r_epik_State_Penalty>  (1) 
-0

>  <r_glide_ring_energy>  (1) 
0.00015063106996441122

>  <r_i_docking_score>  (1) 
-2.906988921379817

>  <r_i_glide_ecoul>  (1) 
-0.10469269888481228

>  <r_i_glide_eff_state_penalty>  (1) 
-0

>  <r_i_glide_einternal>  (1) 
2.6645571922750513

>  <r_i_glide_emodel>  (1) 
-26.652752172168107

>  <r_i_glide_emodel_strain>  (1) 
0

>  <r_i_glide_energy>  (1) 
-24.748748978507525

>  <r_i_glide_erotb>  (1) 
0.46147465592596376

>  <r_i_glide_esite>  (1) 
0

>  <r_i_glide_evdw>  (1) 
-24.644056279622713

>  <r_i_glide_gscore>  (1) 
-2.906988921379817

>  <r_i_glide_gscore_strain>  (1) 
0

>  <r_i_glide_hbond>  (1) 
0

>  <r_i_glide_ligand_efficiency>  (1) 
-0.090843403793119282

>  <r_i_glide_ligand_efficiency_ln>  (1) 
-0.65095406102213149

>  <r_i_glide_ligand_efficiency_sa>  (1) 
-0.28840982949113897

>  <r_i_glide_lipo>  (1) 
-1.3516735234098032

>  <r_i_glide_metal>  (1) 
-0

>  <r_i_glide_rewards>  (1) 
-0.76888333508211959

>  <r_lp_Energy>  (1) 
50.695834999999995

>  <r_lp_tautomer_probability>  (1) 
1

>  <s_epik_cmdline>  (1) 
J2VwaWtfcHl0aG9uJywgJy1waHQnLCAnMS4wJywgJy1waCcsICc3LjQnLCAnLXRuJywgJzgnLCAnLW1hJywgJzUwMCcsICctaW1hZScsICc8aW5maWxlLm1hZT4nLCAnLW9tYWUnLCAnPG91dGZpbGUubWFlPic=

>  <s_epik_input>  (1) 
RkMoRikoRilbQ0gyXVtDQEhdMVtDSF09W0NIXUMoPUMxMilTW0NASF0oW0NIXT1bQ0hdMilbQ0BIXShbQ0BIXShbQ0gzXSlbQ0BIXTNbQ0gzXSlbQ0gyXVtOSF1DKD1PKVtDQEhdM0M0KFtDSDJdW0NIMl1bQ0gyXTQpW0NIMl1bQ0gyXVtDSDJdW0NIM10=

>  <s_glide_docking_method>  (1) 
confgen

>  <s_i_glide_gridfile>  (1) 
gpcr_drd2_6luq_protein_autoprepared_prepared

>  <s_lp_Force_Field>  (1) 
S-OPLS

>  <s_lp_Variant>  (1) 
DiffSBDD_69-1

>  <s_m_source_file>  (1) 
generated_generic_title2_ligand_DiffSBDD_2026-06-23_prepared.sdf

>  <GenAI_Model>  (1) 
DiffSBDD

>  <Protein>  (1) 
generic_title2

$$$$
DiffSBDD_7
     RDKit          3D

  0  0  0  0  0  0  0  0  0  0999 V3000
M  V30 BEGIN CTAB
M  V30 COUNTS 63 65 0 0 1
M  V30 BEGIN ATOM
M  V30 1 C 13.177607 4.802690 -17.511052 0
M  V30 2 C 13.815831 5.403744 -18.619602 0
M  V30 3 C 14.720662 7.447371 -19.832113 0
M  V30 4 C 7.783908 -5.255465 -18.196820 0
M  V30 5 F 16.036126 7.461095 -19.619703 0
M  V30 6 C 7.745747 -2.709171 -18.203247 0
M  V30 7 N 9.571343 1.427411 -17.585038 0
M  V30 8 C 5.568759 -4.013223 -18.502359 0 CFG=1
M  V30 9 C 5.550820 -1.437128 -18.537436 0 CFG=2
M  V30 10 C 11.686558 0.259897 -17.985025 0
M  V30 11 C 14.099605 0.977372 -17.527016 0
M  V30 12 C 14.199549 2.481562 -17.832748 0
M  V30 13 C 6.951543 -1.425400 -17.869096 0 CFG=2
M  V30 14 C 4.785177 -2.728552 -18.176361 0
M  V30 15 F 5.661828 -4.174901 -19.823301 0
M  V30 16 C 14.032303 6.799097 -18.640000 0
M  V30 17 C 8.816925 2.680753 -17.557188 0
M  V30 18 F 14.473987 6.765735 -20.951446 0
M  V30 19 C 6.968881 -3.997531 -17.860182 0 CFG=1
M  V30 20 S 11.542089 2.933914 -18.587890 0
M  V30 21 C 7.748361 -0.144904 -18.206853 0
M  V30 22 C 13.131601 0.216179 -18.447786 0
M  V30 23 C 8.814732 0.241495 -17.164177 0
M  V30 24 C 12.937140 3.296162 -17.483962 0 CFG=2
M  V30 25 C 5.575795 -1.181082 -20.057855 0
M  V30 26 C 12.756262 5.601732 -16.428970 0
M  V30 27 C 12.975412 6.990930 -16.448038 0
M  V30 28 F 14.300088 8.701127 -20.004641 0
M  V30 29 C 10.917494 1.370171 -18.003584 0
M  V30 30 C 13.612216 7.590237 -17.550360 0
M  V30 31 H 14.137035 4.797315 -19.453110 0
M  V30 32 H 7.987310 -5.324646 -19.265711 0
M  V30 33 H 8.741171 -5.246412 -17.676157 0
M  V30 34 H 7.253469 -6.159607 -17.897250 0
M  V30 35 H 8.016643 -2.715746 -19.259491 0
M  V30 36 H 8.683861 -2.707839 -17.647208 0
M  V30 37 H 5.007078 -4.875121 -18.139733 0
M  V30 38 H 4.979537 -0.613639 -18.106143 0
M  V30 39 H 11.281659 -0.670454 -17.627129 0
M  V30 40 H 15.093076 0.546426 -17.655362 0
M  V30 41 H 13.843158 0.815833 -16.480051 0
M  V30 42 H 14.475466 2.623939 -18.877750 0
M  V30 43 H 15.029250 2.877663 -17.245897 0
M  V30 44 H 6.776813 -1.423406 -16.791431 0
M  V30 45 H 3.811821 -2.745635 -18.668147 0
M  V30 46 H 4.575416 -2.719722 -17.105705 0
M  V30 47 H 9.336288 3.433251 -16.962433 0
M  V30 48 H 8.674755 3.066931 -18.566794 0
M  V30 49 H 7.830883 2.547775 -17.111620 0
M  V30 50 H 6.807515 -4.009772 -16.785025 0
M  V30 51 H 7.050361 0.687073 -18.300794 0
M  V30 52 H 8.216077 -0.251934 -19.186480 0
M  V30 53 H 13.425036 -0.832607 -18.478629 0
M  V30 54 H 13.204615 0.575956 -19.474763 0
M  V30 55 H 9.438422 -0.616194 -16.934708 0
M  V30 56 H 8.318643 0.474594 -16.220990 0
M  V30 57 H 12.626215 3.030864 -16.473045 0
M  V30 58 H 6.221410 -1.881593 -20.586097 0
M  V30 59 H 4.575409 -1.272083 -20.479441 0
M  V30 60 H 5.926648 -0.176040 -20.290972 0
M  V30 61 H 12.263419 5.149172 -15.585025 0
M  V30 62 H 12.652208 7.597544 -15.616316 0
M  V30 63 H 13.776549 8.658347 -17.561958 0
M  V30 END ATOM
M  V30 BEGIN BOND
M  V30 1 2 2 1
M  V30 2 1 5 3
M  V30 3 1 12 11
M  V30 4 1 13 6
M  V30 5 1 13 9
M  V30 6 1 14 8
M  V30 7 1 14 9
M  V30 8 1 15 8
M  V30 9 1 16 2
M  V30 10 1 16 3
M  V30 11 1 17 7
M  V30 12 1 18 3
M  V30 13 1 19 4
M  V30 14 1 19 6
M  V30 15 1 19 8
M  V30 16 1 21 13
M  V30 17 1 22 10
M  V30 18 1 22 11
M  V30 19 1 23 7
M  V30 20 1 23 21
M  V30 21 1 24 1
M  V30 22 1 24 12
M  V30 23 1 24 20
M  V30 24 1 25 9
M  V30 25 1 26 1
M  V30 26 2 27 26
M  V30 27 1 28 3
M  V30 28 1 29 7
M  V30 29 2 29 10
M  V30 30 1 29 20
M  V30 31 2 30 16
M  V30 32 1 30 27
M  V30 33 1 31 2
M  V30 34 1 32 4
M  V30 35 1 33 4
M  V30 36 1 34 4
M  V30 37 1 35 6
M  V30 38 1 36 6
M  V30 39 1 8 37 CFG=1
M  V30 40 1 9 38 CFG=1
M  V30 41 1 39 10
M  V30 42 1 40 11
M  V30 43 1 41 11
M  V30 44 1 42 12
M  V30 45 1 43 12
M  V30 46 1 13 44 CFG=1
M  V30 47 1 45 14
M  V30 48 1 46 14
M  V30 49 1 47 17
M  V30 50 1 48 17
M  V30 51 1 49 17
M  V30 52 1 19 50 CFG=1
M  V30 53 1 51 21
M  V30 54 1 52 21
M  V30 55 1 53 22
M  V30 56 1 54 22
M  V30 57 1 55 23
M  V30 58 1 56 23
M  V30 59 1 24 57 CFG=1
M  V30 60 1 58 25
M  V30 61 1 59 25
M  V30 62 1 60 25
M  V30 63 1 61 26
M  V30 64 1 62 27
M  V30 65 1 63 30
M  V30 END BOND
M  V30 END CTAB
M  END
>  <i_epik_Tot_Q>  (1) 
0

>  <i_epik_Tot_abs_Q>  (1) 
0

>  <i_i_glide_confnum>  (1) 
91

>  <i_i_glide_lignum>  (1) 
10

>  <i_i_glide_posenum>  (1) 
125

>  <i_i_glide_rotatable_bonds>  (1) 
6

>  <i_lp_mmshare_version>  (1) 
72125

>  <i_m_source_file_index>  (1) 
8

>  <i_f3d_flags>  (1) 
0

>  <num_sample>  (1) 
100

>  <b_lp_Chiralities_Consistent>  (1) 
1

>  <r_epik_Charging_Adjusted_Penalty>  (1) 
4.04831774087807e-08

>  <r_epik_Ionization_Penalty>  (1) 
4.3565120574992374e-05

>  <r_epik_Ionization_Penalty_Charging>  (1) 
4.04831774087807e-08

>  <r_epik_Ionization_Penalty_Neutral>  (1) 
4.3524637397583592e-05

>  <r_epik_State_Penalty>  (1) 
-0

>  <r_glide_ring_energy>  (1) 
0

>  <r_i_docking_score>  (1) 
-2.9029978381544592

>  <r_i_glide_ecoul>  (1) 
-1.5292325562610345

>  <r_i_glide_eff_state_penalty>  (1) 
-0

>  <r_i_glide_einternal>  (1) 
0.66829556512823984

>  <r_i_glide_emodel>  (1) 
-30.284471823863921

>  <r_i_glide_emodel_strain>  (1) 
0

>  <r_i_glide_energy>  (1) 
-27.25805994994019

>  <r_i_glide_erotb>  (1) 
0.50801221273644082

>  <r_i_glide_esite>  (1) 
-2.0046294835533719e-06

>  <r_i_glide_evdw>  (1) 
-25.728827393679154

>  <r_i_glide_gscore>  (1) 
-2.9029978381544592

>  <r_i_glide_gscore_strain>  (1) 
0

>  <r_i_glide_hbond>  (1) 
0

>  <r_i_glide_ligand_efficiency>  (1) 
-0.096766594605148637

>  <r_i_glide_ligand_efficiency_ln>  (1) 
-0.65959273952355968

>  <r_i_glide_ligand_efficiency_sa>  (1) 
-0.30067630824757718

>  <r_i_glide_lipo>  (1) 
-1.321998084284022

>  <r_i_glide_metal>  (1) 
-0

>  <r_i_glide_rewards>  (1) 
-0.57318370885428205

>  <r_lp_Energy>  (1) 
42.291399999999996

>  <r_lp_tautomer_probability>  (1) 
1

>  <s_epik_Chemistry_Notes>  (1) 
This compound has an imine and may undergo hydrolysis.

>  <s_epik_cmdline>  (1) 
J2VwaWtfcHl0aG9uJywgJy1waHQnLCAnMS4wJywgJy1waCcsICc3LjQnLCAnLXRuJywgJzgnLCAnLW1hJywgJzUwMCcsICctaW1hZScsICc8aW5maWxlLm1hZT4nLCAnLW9tYWUnLCAnPG91dGZpbGUubWFlPic=

>  <s_epik_input>  (1) 
W2NIXTFbY0hdW2NIXWMoQyhGKShGKUYpW2NIXWMxW0NAQEhdMltDSDJdW0NIMl1bQ0gyXVtDSF09QyhTMilOKFtDSDNdKVtDSDJdW0NIMl1bQ0BIXShbQ0gyXVtDQEBIXTNbQ0gzXSlbQ0BASF0oW0NIM10pW0NIMl1bQ0BIXTNG

>  <s_glide_docking_method>  (1) 
confgen

>  <s_i_glide_gridfile>  (1) 
gpcr_drd2_6luq_protein_autoprepared_prepared

>  <s_lp_Force_Field>  (1) 
S-OPLS

>  <s_lp_Variant>  (1) 
DiffSBDD_7-1

>  <s_m_source_file>  (1) 
generated_generic_title2_ligand_DiffSBDD_2026-06-23_prepared.sdf

>  <GenAI_Model>  (1) 
DiffSBDD

>  <Protein>  (1) 
generic_title2

$$$$
DiffSBDD_53
     RDKit          3D

  0  0  0  0  0  0  0  0  0  0999 V3000
M  V30 BEGIN CTAB
M  V30 COUNTS 73 75 0 0 1
M  V30 BEGIN ATOM
M  V30 1 C 6.932325 8.217239 -21.184741 0
M  V30 2 C 14.259373 6.673830 -17.540111 0
M  V30 3 O 7.700987 9.090768 -21.585818 0
M  V30 4 S 13.481199 5.222241 -16.785821 0
M  V30 5 C 15.089039 9.645522 -18.490565 0
M  V30 6 C 11.060140 5.536519 -17.942764 0
M  V30 7 C 10.704343 5.510868 -21.549330 0
M  V30 8 C 11.785056 5.689093 -16.861042 0
M  V30 9 C 17.401271 8.608016 -18.072279 0
M  V30 10 C 15.713932 7.398829 -19.558295 0
M  V30 11 C 4.451100 7.593227 -19.027488 0
M  V30 12 C 10.112160 2.048822 -18.183208 0
M  V30 13 C 4.998160 7.136922 -20.393608 0 CFG=1
M  V30 14 C 5.437324 8.385280 -21.243578 0
M  V30 15 N 7.307056 7.062598 -20.666919 0
M  V30 16 C 18.036082 9.900423 -17.588599 0
M  V30 17 C 9.219877 5.866248 -21.719430 0
M  V30 18 C 10.982258 4.683352 -20.276111 0 CFG=1
M  V30 19 C 8.933092 5.873995 -19.172199 0 CFG=2
M  V30 20 C 11.090199 2.231906 -19.353450 0
M  V30 21 C 16.235016 8.788328 -19.082272 0
M  V30 22 C 6.484647 5.470508 -18.920229 0
M  V30 23 C 15.392918 6.311686 -18.506036 0
M  V30 24 C 8.712868 6.648121 -20.496456 0 CFG=2
M  V30 25 C 6.240838 6.167465 -20.274180 0 CFG=1
M  V30 26 C 16.748773 9.521896 -20.339405 0
M  V30 27 C 19.313921 10.240099 -17.818876 0
M  V30 28 C 10.362830 5.349061 -19.041958 0
M  V30 29 C 10.606086 3.190625 -20.462699 0
M  V30 30 C 7.858390 4.804279 -18.916928 0
M  V30 31 H 13.492721 7.238483 -18.071549 0
M  V30 32 H 14.625213 7.306552 -16.735968 0
M  V30 33 H 14.208873 9.638020 -19.134935 0
M  V30 34 H 15.375098 10.688821 -18.374429 0
M  V30 35 H 14.775345 9.314004 -17.506247 0
M  V30 36 H 11.063226 4.982574 -22.432979 0
M  V30 37 H 11.282553 6.435196 -21.503627 0
M  V30 38 H 11.375643 6.119024 -15.958684 0
M  V30 39 H 18.173382 7.976575 -18.514836 0
M  V30 40 H 17.055300 8.080977 -17.185220 0
M  V30 41 H 16.462293 6.965883 -20.223851 0
M  V30 42 H 14.833310 7.542988 -20.186157 0
M  V30 43 H 5.193187 8.170680 -18.475517 0
M  V30 44 H 4.164522 6.746155 -18.404931 0
M  V30 45 H 3.572428 8.226547 -19.151889 0
M  V30 46 H 10.479320 1.289750 -17.491761 0
M  V30 47 H 9.130496 1.728533 -18.532730 0
M  V30 48 H 9.980667 2.963394 -17.609606 0
M  V30 49 H 4.197306 6.612149 -20.916194 0
M  V30 50 H 5.118338 9.340803 -20.824378 0
M  V30 51 H 5.101186 8.312483 -22.277980 0
M  V30 52 H 17.401095 10.569330 -17.027350 0
M  V30 53 H 9.091649 6.463880 -22.622757 0
M  V30 54 H 8.630172 4.960475 -21.863960 0
M  V30 55 H 12.065990 4.696767 -20.141148 0
M  V30 56 H 8.802346 6.615270 -18.383072 0
M  V30 57 H 12.067166 2.543325 -18.981554 0
M  V30 58 H 11.246195 1.248830 -19.799737 0
M  V30 59 H 6.454803 6.183634 -18.096319 0
M  V30 60 H 5.704643 4.732514 -18.728727 0
M  V30 61 H 15.101271 5.414422 -19.053655 0
M  V30 62 H 16.286396 6.029801 -17.948945 0
M  V30 63 H 9.328528 7.547269 -20.421924 0
M  V30 64 H 6.170073 5.407115 -21.053997 0
M  V30 65 H 17.581416 8.990698 -20.801171 0
M  V30 66 H 17.095200 10.528340 -20.110350 0
M  V30 67 H 15.962976 9.616746 -21.090190 0
M  V30 68 H 19.971862 9.589830 -18.376604 0
M  V30 69 H 19.716444 11.173518 -17.451747 0
M  V30 70 H 9.541918 3.056495 -20.643037 0
M  V30 71 H 11.081894 2.858086 -21.386228 0
M  V30 72 H 7.880603 4.025424 -19.675556 0
M  V30 73 H 8.027337 4.317529 -17.956256 0
M  V30 END ATOM
M  V30 BEGIN BOND
M  V30 1 2 3 1
M  V30 2 1 4 2
M  V30 3 1 8 4
M  V30 4 2 8 6
M  V30 5 1 13 11
M  V30 6 1 14 1
M  V30 7 1 14 13
M  V30 8 1 15 1
M  V30 9 1 16 9
M  V30 10 1 17 7
M  V30 11 1 18 7
M  V30 12 1 20 12
M  V30 13 1 21 5
M  V30 14 1 21 9
M  V30 15 1 21 10
M  V30 16 1 23 2
M  V30 17 1 23 10
M  V30 18 1 24 15
M  V30 19 1 24 17
M  V30 20 1 24 19
M  V30 21 1 25 13
M  V30 22 1 25 15
M  V30 23 1 25 22
M  V30 24 1 26 21
M  V30 25 2 27 16
M  V30 26 2 28 6
M  V30 27 1 28 18
M  V30 28 1 28 19
M  V30 29 1 29 18
M  V30 30 1 29 20
M  V30 31 1 30 19
M  V30 32 1 30 22
M  V30 33 1 31 2
M  V30 34 1 32 2
M  V30 35 1 33 5
M  V30 36 1 34 5
M  V30 37 1 35 5
M  V30 38 1 36 7
M  V30 39 1 37 7
M  V30 40 1 38 8
M  V30 41 1 39 9
M  V30 42 1 40 9
M  V30 43 1 41 10
M  V30 44 1 42 10
M  V30 45 1 43 11
M  V30 46 1 44 11
M  V30 47 1 45 11
M  V30 48 1 46 12
M  V30 49 1 47 12
M  V30 50 1 48 12
M  V30 51 1 13 49 CFG=3
M  V30 52 1 50 14
M  V30 53 1 51 14
M  V30 54 1 52 16
M  V30 55 1 53 17
M  V30 56 1 54 17
M  V30 57 1 18 55 CFG=1
M  V30 58 1 19 56 CFG=1
M  V30 59 1 57 20
M  V30 60 1 58 20
M  V30 61 1 59 22
M  V30 62 1 60 22
M  V30 63 1 61 23
M  V30 64 1 62 23
M  V30 65 1 24 63 CFG=1
M  V30 66 1 25 64 CFG=3
M  V30 67 1 65 26
M  V30 68 1 66 26
M  V30 69 1 67 26
M  V30 70 1 68 27
M  V30 71 1 69 27
M  V30 72 1 70 29
M  V30 73 1 71 29
M  V30 74 1 72 30
M  V30 75 1 73 30
M  V30 END BOND
M  V30 END CTAB
M  END
>  <i_epik_Tot_Q>  (1) 
0

>  <i_epik_Tot_abs_Q>  (1) 
0

>  <i_i_glide_confnum>  (1) 
325

>  <i_i_glide_lignum>  (1) 
86

>  <i_i_glide_posenum>  (1) 
201

>  <i_i_glide_rotatable_bonds>  (1) 
9

>  <i_lp_mmshare_version>  (1) 
72125

>  <i_m_source_file_index>  (1) 
54

>  <i_f3d_flags>  (1) 
0

>  <num_sample>  (1) 
100

>  <b_lp_Chiralities_Consistent>  (1) 
1

>  <r_epik_Charging_Adjusted_Penalty>  (1) 
0

>  <r_epik_Ionization_Penalty>  (1) 
8.5702257649792976e-08

>  <r_epik_Ionization_Penalty_Charging>  (1) 
0

>  <r_epik_Ionization_Penalty_Neutral>  (1) 
8.5702257649792976e-08

>  <r_epik_State_Penalty>  (1) 
-0

>  <r_glide_ring_energy>  (1) 
0

>  <r_i_docking_score>  (1) 
-2.9001430162801598

>  <r_i_glide_ecoul>  (1) 
-0.041165107887035368

>  <r_i_glide_eff_state_penalty>  (1) 
-0

>  <r_i_glide_einternal>  (1) 
6.8876645845131605

>  <r_i_glide_emodel>  (1) 
-25.088695517975758

>  <r_i_glide_emodel_strain>  (1) 
0.83450962819212293

>  <r_i_glide_energy>  (1) 
-25.212379435383419

>  <r_i_glide_erotb>  (1) 
0.86106388295804615

>  <r_i_glide_esite>  (1) 
0

>  <r_i_glide_evdw>  (1) 
-25.171214327496383

>  <r_i_glide_gscore>  (1) 
-2.9001430162801598

>  <r_i_glide_gscore_strain>  (1) 
0

>  <r_i_glide_hbond>  (1) 
0

>  <r_i_glide_ligand_efficiency>  (1) 
-0.096671433876005325

>  <r_i_glide_ligand_efficiency_ln>  (1) 
-0.65894409288794309

>  <r_i_glide_ligand_efficiency_sa>  (1) 
-0.30038062173669283

>  <r_i_glide_lipo>  (1) 
-1.8062846824563779

>  <r_i_glide_metal>  (1) 
-0

>  <r_i_glide_rewards>  (1) 
-0.69018673422395382

>  <r_lp_Energy>  (1) 
0.63202399999999992

>  <r_lp_tautomer_probability>  (1) 
1

>  <s_epik_cmdline>  (1) 
J2VwaWtfcHl0aG9uJywgJy1waHQnLCAnMS4wJywgJy1waCcsICc3LjQnLCAnLXRuJywgJzgnLCAnLW1hJywgJzUwMCcsICctaW1hZScsICc8aW5maWxlLm1hZT4nLCAnLW9tYWUnLCAnPG91dGZpbGUubWFlPic=

>  <s_epik_input>  (1) 
Tz1DMVtDSDJdW0NASF0oW0NIM10pW0NAQEhdMltDSDJdW0NIMl1bQ0BIXShbQ0BASF0zTjEyKUMoW0NASF0oW0NIMl1bQ0gyXTMpW0NIMl1bQ0gyXVtDSDNdKT1DPVtDSF1TW0NIMl1bQ0gyXVtDSDJdQyhbQ0gzXSkoW0NIM10pW0NIMl1bQ0hdPVtDSDJd

>  <s_glide_docking_method>  (1) 
confgen

>  <s_i_glide_gridfile>  (1) 
gpcr_drd2_6luq_protein_autoprepared_prepared

>  <s_lp_Force_Field>  (1) 
S-OPLS

>  <s_lp_Variant>  (1) 
DiffSBDD_53-1

>  <s_m_source_file>  (1) 
generated_generic_title2_ligand_DiffSBDD_2026-06-23_prepared.sdf

>  <GenAI_Model>  (1) 
DiffSBDD

>  <Protein>  (1) 
generic_title2

$$$$
DiffSBDD_43
     RDKit          3D

  0  0  0  0  0  0  0  0  0  0999 V3000
M  V30 BEGIN CTAB
M  V30 COUNTS 73 80 0 0 1
M  V30 BEGIN ATOM
M  V30 1 C 10.693090 -0.045622 -18.385884 0 CFG=1
M  V30 2 C 9.788739 -0.454986 -17.235849 0 CFG=2
M  V30 3 C 8.387536 -0.445525 -19.252285 0 CFG=1
M  V30 4 C 4.051399 -0.630138 -18.842580 0
M  V30 5 C 13.670949 2.276477 -17.305301 0
M  V30 6 C 13.675529 3.238374 -18.489825 0
M  V30 7 C 9.855110 -0.295017 -19.670821 0
M  V30 8 S 15.288387 9.242004 -17.985043 0
M  V30 9 C 15.188817 6.413852 -18.176758 0 CFG=1
M  V30 10 C 14.362537 7.697956 -18.188925 0 CFG=1
M  V30 11 C 5.263904 -2.688746 -17.744877 0
M  V30 12 C 13.715453 5.749778 -16.179605 0
M  V30 13 C 7.600299 -1.450621 -20.114259 0
M  V30 14 C 15.096591 5.631856 -16.853743 0 CFG=1
M  V30 15 C 15.095924 8.494581 -20.635710 0
M  V30 16 C 5.452484 -2.597027 -19.245625 0 CFG=1
M  V30 17 N 14.760573 4.128862 -18.558505 0
M  V30 18 C 4.175425 -2.119747 -18.624778 0 CFG=2
M  V30 19 O 13.089274 7.598584 -17.565590 0
M  V30 20 C 12.710310 3.215730 -19.426656 0
M  V30 21 C 5.413196 -0.162619 -19.352444 0
M  V30 22 C 10.249243 3.218099 -19.468903 0
M  V30 23 C 13.169459 7.176813 -16.214015 0
M  V30 24 C 14.718904 5.417848 -19.222823 0
M  V30 25 C 11.448227 1.315857 -18.171097 0 CFG=1
M  V30 26 C 12.874413 1.013286 -17.653626 0
M  V30 27 C 14.281875 8.653567 -19.368890 0 CFG=2
M  V30 28 C 8.420100 -0.765564 -17.779101 0 CFG=2
M  V30 29 C 8.592001 0.327402 -16.754701 0
M  V30 30 F 9.107573 2.544321 -19.484574 0
M  V30 31 O 15.286660 4.268482 -17.231600 0
M  V30 32 F 10.223797 4.043192 -18.420618 0
M  V30 33 F 10.293348 3.951905 -20.581863 0
M  V30 34 C 6.058850 -1.418557 -19.979212 0 CFG=1
M  V30 35 C 11.496437 2.295003 -19.394115 0 CFG=2
M  V30 36 H 11.464338 -0.809777 -18.385027 0
M  V30 37 H 10.198796 -1.209792 -16.567603 0
M  V30 38 H 7.930718 0.533388 -19.367420 0
M  V30 39 H 3.775405 -0.143056 -17.912783 0
M  V30 40 H 3.289905 -0.409781 -19.585019 0
M  V30 41 H 14.682398 1.979533 -17.024840 0
M  V30 42 H 13.222319 2.767262 -16.441308 0
M  V30 43 H 9.951797 0.441369 -20.462799 0
M  V30 44 H 10.175454 -1.231508 -20.121226 0
M  V30 45 H 16.235508 6.646267 -18.376446 0
M  V30 46 H 5.787432 -1.988955 -17.098018 0
M  V30 47 H 5.092240 -3.673213 -17.313399 0
M  V30 48 H 12.983983 5.119338 -16.683012 0
M  V30 49 H 13.775430 5.382629 -15.157120 0
M  V30 50 H 7.834091 -1.230649 -21.156743 0
M  V30 51 H 7.971218 -2.462525 -19.945542 0
M  V30 52 H 15.872601 5.953761 -16.157819 0
M  V30 53 H 14.544512 7.894511 -21.359274 0
M  V30 54 H 15.290774 9.473144 -21.075415 0
M  V30 55 H 16.051171 8.009505 -20.435744 0
M  V30 56 H 5.436066 -3.536862 -19.794252 0
M  V30 57 H 3.275928 -2.714426 -18.773543 0
M  V30 58 H 12.761259 3.900715 -20.258707 0
M  V30 59 H 5.964738 0.188649 -18.482549 0
M  V30 60 H 5.336285 0.667616 -20.055350 0
M  V30 61 H 12.171299 7.190234 -15.781063 0
M  V30 62 H 13.775409 7.862681 -15.627138 0
M  V30 63 H 15.362717 5.423049 -20.102675 0
M  V30 64 H 13.706659 5.666743 -19.540424 0
M  V30 65 H 10.945382 1.850517 -17.364994 0
M  V30 66 H 13.422587 0.457468 -18.416044 0
M  V30 67 H 12.834394 0.359984 -16.785027 0
M  V30 68 H 13.385338 9.263299 -19.458152 0
M  V30 69 H 8.001259 -1.720144 -17.469430 0
M  V30 70 H 8.488035 1.358217 -17.087440 0
M  V30 71 H 8.228261 0.125945 -15.748598 0
M  V30 72 H 5.658459 -1.492149 -20.992135 0
M  V30 73 H 11.598627 1.723843 -20.314378 0
M  V30 END ATOM
M  V30 BEGIN BOND
M  V30 1 1 2 1
M  V30 2 1 6 5
M  V30 3 1 7 1
M  V30 4 1 7 3
M  V30 5 1 10 8
M  V30 6 1 10 9
M  V30 7 1 13 3
M  V30 8 1 14 9
M  V30 9 1 14 12
M  V30 10 1 16 11
M  V30 11 1 17 6
M  V30 12 1 18 4
M  V30 13 1 18 11
M  V30 14 1 18 16
M  V30 15 1 10 19 CFG=1
M  V30 16 2 20 6
M  V30 17 1 21 4
M  V30 18 1 23 12
M  V30 19 1 23 19
M  V30 20 1 24 9
M  V30 21 1 24 17
M  V30 22 1 25 1
M  V30 23 1 26 5
M  V30 24 1 26 25
M  V30 25 1 27 8
M  V30 26 1 27 10
M  V30 27 1 27 15
M  V30 28 1 28 2
M  V30 29 1 28 3
M  V30 30 1 29 2
M  V30 31 1 29 28
M  V30 32 1 30 22
M  V30 33 1 31 14
M  V30 34 1 31 17
M  V30 35 1 32 22
M  V30 36 1 33 22
M  V30 37 1 34 13
M  V30 38 1 34 16
M  V30 39 1 34 21
M  V30 40 1 35 20
M  V30 41 1 35 22
M  V30 42 1 35 25
M  V30 43 1 1 36 CFG=3
M  V30 44 1 2 37 CFG=1
M  V30 45 1 3 38 CFG=1
M  V30 46 1 39 4
M  V30 47 1 40 4
M  V30 48 1 41 5
M  V30 49 1 42 5
M  V30 50 1 43 7
M  V30 51 1 44 7
M  V30 52 1 9 45 CFG=3
M  V30 53 1 46 11
M  V30 54 1 47 11
M  V30 55 1 48 12
M  V30 56 1 49 12
M  V30 57 1 50 13
M  V30 58 1 51 13
M  V30 59 1 14 52 CFG=1
M  V30 60 1 53 15
M  V30 61 1 54 15
M  V30 62 1 55 15
M  V30 63 1 16 56 CFG=3
M  V30 64 1 18 57 CFG=3
M  V30 65 1 58 20
M  V30 66 1 59 21
M  V30 67 1 60 21
M  V30 68 1 61 23
M  V30 69 1 62 23
M  V30 70 1 63 24
M  V30 71 1 64 24
M  V30 72 1 25 65 CFG=1
M  V30 73 1 66 26
M  V30 74 1 67 26
M  V30 75 1 27 68 CFG=3
M  V30 76 1 28 69 CFG=1
M  V30 77 1 70 29
M  V30 78 1 71 29
M  V30 79 1 34 72 CFG=3
M  V30 80 1 35 73 CFG=3
M  V30 END BOND
M  V30 END CTAB
M  END
>  <i_epik_Tot_Q>  (1) 
0

>  <i_epik_Tot_abs_Q>  (1) 
0

>  <i_i_glide_confnum>  (1) 
59

>  <i_i_glide_lignum>  (1) 
70

>  <i_i_glide_posenum>  (1) 
111

>  <i_i_glide_rotatable_bonds>  (1) 
5

>  <i_lp_mmshare_version>  (1) 
72125

>  <i_m_source_file_index>  (1) 
44

>  <i_f3d_flags>  (1) 
0

>  <num_sample>  (1) 
100

>  <b_lp_Chiralities_Consistent>  (1) 
1

>  <r_epik_Charging_Adjusted_Penalty>  (1) 
0

>  <r_epik_Ionization_Penalty>  (1) 
0.0012510015798316548

>  <r_epik_Ionization_Penalty_Charging>  (1) 
0

>  <r_epik_Ionization_Penalty_Neutral>  (1) 
0.0012510015798316548

>  <r_epik_State_Penalty>  (1) 
-0

>  <r_glide_ring_energy>  (1) 
1.7881069195932777

>  <r_i_docking_score>  (1) 
-2.8794767272094881

>  <r_i_glide_ecoul>  (1) 
-0.89367502836058177

>  <r_i_glide_eff_state_penalty>  (1) 
-0

>  <r_i_glide_einternal>  (1) 
20.139469508677038

>  <r_i_glide_emodel>  (1) 
-18.048149994421628

>  <r_i_glide_emodel_strain>  (1) 
2.7537648414425178

>  <r_i_glide_energy>  (1) 
-26.716751606546723

>  <r_i_glide_erotb>  (1) 
0.31537474361301371

>  <r_i_glide_esite>  (1) 
-0.001271781145152139

>  <r_i_glide_evdw>  (1) 
-25.823076578186139

>  <r_i_glide_gscore>  (1) 
-2.8794767272094881

>  <r_i_glide_gscore_strain>  (1) 
0

>  <r_i_glide_hbond>  (1) 
0

>  <r_i_glide_ligand_efficiency>  (1) 
-0.082270763634556807

>  <r_i_glide_ligand_efficiency_ln>  (1) 
-0.63210904816524971

>  <r_i_glide_ligand_efficiency_sa>  (1) 
-0.26911312323848735

>  <r_i_glide_lipo>  (1) 
-1.7598942931520163

>  <r_i_glide_metal>  (1) 
-0

>  <r_i_glide_rewards>  (1) 
-0.0084803133619391693

>  <r_lp_Energy>  (1) 
25.974439

>  <r_lp_tautomer_probability>  (1) 
1

>  <s_epik_Chemistry_Notes>  (1) 
This compound has a N-S or N-O group and may undergo hydrolysis at high or low pH.

>  <s_epik_cmdline>  (1) 
J2VwaWtfcHl0aG9uJywgJy1waHQnLCAnMS4wJywgJy1waCcsICc3LjQnLCAnLXRuJywgJzgnLCAnLW1hJywgJzUwMCcsICctaW1hZScsICc8aW5maWxlLm1hZT4nLCAnLW9tYWUnLCAnPG91dGZpbGUubWFlPic=

>  <s_epik_input>  (1) 
W0NIMl0xW0NASF0oW0NASF0xMilbQ0gyXVtDSDJdW0NASF0yW0NIMl1bQ0BASF0oW0NAQEhdKFtDQEBIXTM0KVtDSDJdNClbQ0gyXVtDQEhdM1tDQEBIXShbQ0gyXVtDSDJdNSlbQ0BASF0oQyhGKShGKUYpW0NIXT1DNU4oW0NIMl02KU9bQ0BASF0oW0NIMl1bQ0gyXU83KVtDQEBIXTZbQ0BAXTc4U1tDQEhdOFtDSDNd

>  <s_glide_docking_method>  (1) 
confgen

>  <s_i_glide_gridfile>  (1) 
gpcr_drd2_6luq_protein_autoprepared_prepared

>  <s_lp_Force_Field>  (1) 
S-OPLS

>  <s_lp_Variant>  (1) 
DiffSBDD_43-2

>  <s_m_source_file>  (1) 
generated_generic_title2_ligand_DiffSBDD_2026-06-23_prepared.sdf

>  <GenAI_Model>  (1) 
DiffSBDD

>  <Protein>  (1) 
generic_title2

$$$$
DiffSBDD_28
     RDKit          3D

  0  0  0  0  0  0  0  0  0  0999 V3000
M  V30 BEGIN CTAB
M  V30 COUNTS 61 65 0 0 1
M  V30 BEGIN ATOM
M  V30 1 C 10.212679 1.095425 -18.298361 0 CFG=1
M  V30 2 F 14.632430 3.565638 -18.242927 0
M  V30 3 C 13.893751 1.570481 -19.356607 0
M  V30 4 C 7.585315 -1.611345 -22.718077 0
M  V30 5 C 7.263327 -1.422740 -21.245306 0
M  V30 6 C 15.363645 0.542108 -21.029172 0
M  V30 7 C 5.919315 -4.943602 -17.429345 0 CFG=2
M  V30 8 O 7.986159 -3.802953 -17.585479 0
M  V30 9 C 6.611126 -5.445494 -18.682817 0
M  V30 10 C 16.303086 1.573610 -20.835832 0
M  V30 11 C 7.366654 -2.635435 -20.328134 0
M  V30 12 C 6.277710 -1.524490 -18.258994 0
M  V30 13 C 9.784988 2.354139 -17.539683 0
M  V30 14 C 9.060406 0.276579 -18.840255 0 CFG=1
M  V30 15 Cl 17.767808 1.590009 -21.745149 0
M  V30 16 O 12.074551 1.782037 -21.305019 0
M  V30 17 C 9.798945 1.051712 -21.062284 0 CFG=1
M  V30 18 O 4.520541 -4.965865 -17.583549 0
M  V30 19 C 16.051613 2.589079 -19.897347 0
M  V30 20 C 6.175315 -1.300171 -22.291948 0
M  V30 21 C 11.204194 1.417663 -20.514918 0
M  V30 22 O 7.740971 -0.177900 -20.719908 0
M  V30 23 O 9.920055 0.656917 -22.414306 0
M  V30 24 N 11.380710 1.329166 -19.139173 0
M  V30 25 C 14.858356 2.585626 -19.151489 0
M  V30 26 C 6.341248 -2.780733 -19.152535 0
M  V30 27 C 4.929108 -2.949547 -19.770791 0
M  V30 28 O 8.230574 -3.493697 -20.514903 0
M  V30 29 C 6.757825 -3.995216 -18.270541 0 CFG=1
M  V30 30 C 9.108923 -0.098759 -20.299073 0 CFG=2
M  V30 31 C 12.617533 1.561841 -18.515442 0
M  V30 32 C 9.963158 -0.301603 -17.773917 0
M  V30 33 C 14.163666 0.532131 -20.290369 0
M  V30 34 O 12.711906 1.733344 -17.301774 0
M  V30 35 H 8.083635 -0.827873 -23.277614 0
M  V30 36 H 7.779140 -2.621312 -23.074729 0
M  V30 37 H 15.563540 -0.243365 -21.743379 0
M  V30 38 H 6.265976 -5.304369 -16.461965 0
M  V30 39 H 7.798205 -3.557432 -16.681711 0
M  V30 40 H 5.995171 -5.667414 -19.551421 0
M  V30 41 H 7.475627 -6.095042 -18.559777 0
M  V30 42 H 5.519176 -1.643093 -17.483936 0
M  V30 43 H 7.217998 -1.343843 -17.742557 0
M  V30 44 H 6.015982 -0.627994 -18.821044 0
M  V30 45 H 8.839730 2.190748 -17.020966 0
M  V30 46 H 10.510138 2.651071 -16.785024 0
M  V30 47 H 9.647382 3.185495 -18.231546 0
M  V30 48 H 8.080758 0.622663 -18.517636 0
M  V30 49 H 9.180574 1.949564 -21.018756 0
M  V30 50 H 4.167176 -4.722623 -16.727560 0
M  V30 51 H 16.778286 3.373173 -19.745385 0
M  V30 52 H 5.458163 -2.108045 -22.420462 0
M  V30 53 H 5.790083 -0.303856 -22.500524 0
M  V30 54 H 9.051930 0.468042 -22.735741 0
M  V30 55 H 4.154710 -3.044739 -19.013283 0
M  V30 56 H 4.623748 -2.070175 -20.334729 0
M  V30 57 H 4.863421 -3.813319 -20.432556 0
M  V30 58 H 9.654171 -1.036326 -20.424000 0
M  V30 59 H 9.526238 -0.412256 -16.785059 0
M  V30 60 H 10.650798 -1.092113 -18.059456 0
M  V30 61 H 13.451073 -0.267096 -20.435934 0
M  V30 END ATOM
M  V30 BEGIN BOND
M  V30 1 1 5 4
M  V30 2 1 9 7
M  V30 3 1 10 6
M  V30 4 1 11 5
M  V30 5 1 1 13 CFG=1
M  V30 6 1 14 1
M  V30 7 1 15 10
M  V30 8 1 18 7
M  V30 9 2 19 10
M  V30 10 1 20 4
M  V30 11 1 20 5
M  V30 12 2 21 16
M  V30 13 1 21 17
M  V30 14 1 22 5
M  V30 15 1 23 17
M  V30 16 1 24 1
M  V30 17 1 24 21
M  V30 18 1 25 2
M  V30 19 2 25 3
M  V30 20 1 25 19
M  V30 21 1 26 11
M  V30 22 1 26 12
M  V30 23 1 27 26
M  V30 24 2 28 11
M  V30 25 1 29 7
M  V30 26 1 29 8 CFG=1
M  V30 27 1 29 9
M  V30 28 1 29 26
M  V30 29 1 30 14
M  V30 30 1 30 17
M  V30 31 1 30 22
M  V30 32 1 31 3
M  V30 33 1 31 24
M  V30 34 1 32 1
M  V30 35 1 32 14
M  V30 36 1 33 3
M  V30 37 2 33 6
M  V30 38 2 34 31
M  V30 39 1 35 4
M  V30 40 1 36 4
M  V30 41 1 37 6
M  V30 42 1 7 38 CFG=1
M  V30 43 1 39 8
M  V30 44 1 40 9
M  V30 45 1 41 9
M  V30 46 1 42 12
M  V30 47 1 43 12
M  V30 48 1 44 12
M  V30 49 1 45 13
M  V30 50 1 46 13
M  V30 51 1 47 13
M  V30 52 1 14 48 CFG=1
M  V30 53 1 17 49 CFG=3
M  V30 54 1 50 18
M  V30 55 1 51 19
M  V30 56 1 52 20
M  V30 57 1 53 20
M  V30 58 1 54 23
M  V30 59 1 55 27
M  V30 60 1 56 27
M  V30 61 1 57 27
M  V30 62 1 30 58 CFG=1
M  V30 63 1 59 32
M  V30 64 1 60 32
M  V30 65 1 61 33
M  V30 END BOND
M  V30 END CTAB
M  END
>  <i_epik_Tot_Q>  (1) 
0

>  <i_epik_Tot_abs_Q>  (1) 
0

>  <i_i_glide_confnum>  (1) 
167

>  <i_i_glide_lignum>  (1) 
49

>  <i_i_glide_posenum>  (1) 
223

>  <i_i_glide_rotatable_bonds>  (1) 
10

>  <i_lp_mmshare_version>  (1) 
72125

>  <i_m_source_file_index>  (1) 
29

>  <i_f3d_flags>  (1) 
0

>  <num_sample>  (1) 
100

>  <b_lp_Chiralities_Consistent>  (1) 
1

>  <r_epik_Charging_Adjusted_Penalty>  (1) 
0

>  <r_epik_Ionization_Penalty>  (1) 
0.00021297919892765405

>  <r_epik_Ionization_Penalty_Charging>  (1) 
0

>  <r_epik_Ionization_Penalty_Neutral>  (1) 
0.00021297919892765405

>  <r_epik_State_Penalty>  (1) 
-0

>  <r_glide_ring_energy>  (1) 
0

>  <r_i_docking_score>  (1) 
-2.839534691116508

>  <r_i_glide_ecoul>  (1) 
-7.1408473602395102

>  <r_i_glide_eff_state_penalty>  (1) 
-0

>  <r_i_glide_einternal>  (1) 
3.1705419710946572

>  <r_i_glide_emodel>  (1) 
-31.475101861722379

>  <r_i_glide_emodel_strain>  (1) 
0.56633132356500937

>  <r_i_glide_energy>  (1) 
-28.761611666785754

>  <r_i_glide_erotb>  (1) 
0.58028021172077726

>  <r_i_glide_esite>  (1) 
-0.0029237534582766751

>  <r_i_glide_evdw>  (1) 
-21.620764306546242

>  <r_i_glide_gscore>  (1) 
-2.839534691116508

>  <r_i_glide_gscore_strain>  (1) 
0

>  <r_i_glide_hbond>  (1) 
-0.45599999999999996

>  <r_i_glide_ligand_efficiency>  (1) 
-0.083515726209309055

>  <r_i_glide_ligand_efficiency_ln>  (1) 
-0.62733285951792417

>  <r_i_glide_ligand_efficiency_sa>  (1) 
-0.27055853221993686

>  <r_i_glide_lipo>  (1) 
-0.66048506305888499

>  <r_i_glide_metal>  (1) 
-0

>  <r_i_glide_rewards>  (1) 
-0.14824076695688498

>  <r_lp_Energy>  (1) 
67.434545999999997

>  <r_lp_tautomer_probability>  (1) 
1

>  <s_epik_cmdline>  (1) 
J2VwaWtfcHl0aG9uJywgJy1waHQnLCAnMS4wJywgJy1waCcsICc3LjQnLCAnLXRuJywgJzgnLCAnLW1hJywgJzUwMCcsICctaW1hZScsICc8aW5maWxlLm1hZT4nLCAnLW9tYWUnLCAnPG91dGZpbGUubWFlPic=

>  <s_epik_input>  (1) 
W0NIMl0xW0NASF0oW09IXSlbQ0BdMShbT0hdKUMoW0NIM10pKFtDSDNdKUMoPU8pQzIoW0NIMl1bQ0gyXTIpT1tDQEhdKFtDQEBIXShbQ0gyXTMpW0NAQF0zNFtDSDNdKVtDQEhdKFtPSF0pQyg9TylONEMoPU8pYzVjKEYpW2NIXWMoQ2wpW2NIXVtjSF01

>  <s_glide_docking_method>  (1) 
confgen

>  <s_i_glide_gridfile>  (1) 
gpcr_drd2_6luq_protein_autoprepared_prepared

>  <s_lp_Force_Field>  (1) 
S-OPLS

>  <s_lp_Variant>  (1) 
DiffSBDD_28-1

>  <s_m_source_file>  (1) 
generated_generic_title2_ligand_DiffSBDD_2026-06-23_prepared.sdf

>  <GenAI_Model>  (1) 
DiffSBDD

>  <Protein>  (1) 
generic_title2

$$$$
DiffSBDD_90
     RDKit          3D

  0  0  0  0  0  0  0  0  0  0999 V3000
M  V30 BEGIN CTAB
M  V30 COUNTS 80 84 0 0 1
M  V30 BEGIN ATOM
M  V30 1 C 7.556090 6.760452 -13.672730 0
M  V30 2 C 8.699833 5.895605 -13.097139 0 CFG=1
M  V30 3 C 9.939029 7.584140 -10.089388 0
M  V30 4 C 9.621607 3.824600 -18.097858 0 CFG=2
M  V30 5 C 10.866221 6.807321 -11.909531 0
M  V30 6 C 9.895534 8.255925 -8.803651 0 CFG=2
M  V30 7 C 7.115102 3.308843 -15.160522 0 CFG=2
M  V30 8 O 6.973492 6.144196 -15.969847 0
M  V30 9 C 6.840772 5.770748 -14.617503 0 CFG=1
M  V30 10 C 10.842528 5.958010 -19.086192 0
M  V30 11 O 11.588485 2.714390 -19.796220 0
M  V30 12 C 9.513241 6.536294 -11.999833 0
M  V30 13 C 7.098332 4.104062 -11.979349 0 CFG=2
M  V30 14 O 13.642539 2.420593 -18.942886 0 CHG=-1
M  V30 15 O 8.814451 4.134341 -19.085052 0 CHG=-1
M  V30 16 C 8.023590 2.881887 -16.359552 0 CFG=2
M  V30 17 N 8.719819 4.056649 -16.953091 0 CHG=1
M  V30 18 N 7.563843 4.518135 -14.462968 0
M  V30 19 C 13.299593 5.671202 -16.449683 0
M  V30 20 C 7.260264 2.051044 -17.435190 0
M  V30 21 O 7.321890 4.706905 -10.724009 0
M  V30 22 O 6.582784 2.866686 -18.374076 0
M  V30 23 O 7.376258 0.790088 -12.434296 0
M  V30 24 C 8.221233 3.162624 -12.386877 0 CFG=1
M  V30 25 C 12.524933 2.982420 -19.015277 0
M  V30 26 C 6.786893 2.134188 -14.227493 0
M  V30 27 N 11.039140 7.454061 -10.714661 0
M  V30 28 O 12.430846 6.531681 -16.312235 0
M  V30 29 C 11.471871 8.558203 -8.775361 0
M  V30 30 N 8.975408 7.040778 -10.827053 0 CHG=1
M  V30 31 C 10.865802 4.802397 -18.055491 0 CFG=2
M  V30 32 O 10.981794 6.000015 -7.020996 0
M  V30 33 O 9.375180 7.530088 -7.688855 0
M  V30 34 C 9.702552 6.185172 -7.524128 0
M  V30 35 C 14.623408 5.803166 -15.706128 0
M  V30 36 C 12.294014 4.136471 -18.034830 0
M  V30 37 C 7.878251 1.883262 -13.183962 0 CFG=2
M  V30 38 C 11.129040 6.456511 -5.683064 0
M  V30 39 N 13.239927 4.535007 -17.247817 0
M  V30 40 C 12.201583 7.989010 -10.085487 0
M  V30 41 C 8.051222 4.503647 -13.098229 0 CFG=1
M  V30 42 H 6.876350 7.056893 -12.872738 0
M  V30 43 H 7.880242 7.670094 -14.172956 0
M  V30 44 H 9.447826 5.826889 -13.891656 0
M  V30 45 H 9.991168 2.813288 -17.930244 0
M  V30 46 H 11.682146 6.607222 -12.590704 0
M  V30 47 H 9.321250 9.168207 -8.948913 0
M  V30 48 H 6.175821 3.583985 -15.585058 0
M  V30 49 H 6.170520 6.558413 -16.250553 0
M  V30 50 H 5.790644 5.645610 -14.345941 0
M  V30 51 H 11.680981 6.640782 -18.947125 0
M  V30 52 H 10.897818 5.574090 -20.105828 0
M  V30 53 H 9.928588 6.545746 -18.997758 0
M  V30 54 H 6.050672 3.909205 -12.197429 0
M  V30 55 H 8.810539 2.238256 -15.972612 0
M  V30 56 H 8.022181 4.707444 -17.283076 0
M  V30 57 H 6.548852 1.354934 -16.993326 0
M  V30 58 H 7.967505 1.440270 -17.996348 0
M  V30 59 H 6.709810 4.352278 -10.093380 0
M  V30 60 H 7.280704 3.372288 -18.822498 0
M  V30 61 H 6.528104 1.013236 -12.083332 0
M  V30 62 H 9.066382 3.072360 -11.706118 0
M  V30 63 H 5.837750 2.329422 -13.726823 0
M  V30 64 H 6.613430 1.221847 -14.797659 0
M  V30 65 H 11.632795 9.632283 -8.719091 0
M  V30 66 H 11.940158 8.147685 -7.883020 0
M  V30 67 H 10.712092 5.277479 -17.096678 0
M  V30 68 H 8.976768 5.760441 -6.828726 0
M  V30 69 H 9.600706 5.624867 -8.453143 0
M  V30 70 H 15.356134 6.299538 -16.343192 0
M  V30 71 H 14.493663 6.390764 -14.799549 0
M  V30 72 H 15.019506 4.829267 -15.418243 0
M  V30 73 H 8.785888 1.542559 -13.677875 0
M  V30 74 H 12.125570 6.203778 -5.324145 0
M  V30 75 H 11.011329 7.538126 -5.614319 0
M  V30 76 H 10.407843 5.994226 -5.008893 0
M  V30 77 H 12.900447 7.190622 -9.856392 0
M  V30 78 H 12.651885 8.756949 -10.713981 0
M  V30 79 H 7.985677 7.019723 -10.561477 0
M  V30 80 H 9.225678 4.516235 -16.213567 0
M  V30 END ATOM
M  V30 BEGIN BOND
M  V30 1 1 2 1
M  V30 2 1 6 3
M  V30 3 1 9 1
M  V30 4 1 9 8
M  V30 5 1 12 2
M  V30 6 2 12 5
M  V30 7 1 15 4
M  V30 8 1 16 7
M  V30 9 1 17 4
M  V30 10 1 17 16
M  V30 11 1 18 7
M  V30 12 1 18 9
M  V30 13 1 20 16
M  V30 14 1 21 13
M  V30 15 1 22 20
M  V30 16 1 24 13
M  V30 17 2 25 11
M  V30 18 1 25 14
M  V30 19 1 26 7
M  V30 20 1 27 3
M  V30 21 1 27 5
M  V30 22 2 28 19
M  V30 23 1 29 6
M  V30 24 2 30 3
M  V30 25 1 30 12
M  V30 26 1 31 4
M  V30 27 1 31 10
M  V30 28 1 33 6
M  V30 29 1 34 32
M  V30 30 1 34 33
M  V30 31 1 35 19
M  V30 32 1 36 25
M  V30 33 1 36 31
M  V30 34 1 37 23
M  V30 35 1 37 24
M  V30 36 1 37 26
M  V30 37 1 38 32
M  V30 38 1 39 19
M  V30 39 2 39 36
M  V30 40 1 40 27
M  V30 41 1 40 29
M  V30 42 1 41 2
M  V30 43 1 41 13
M  V30 44 1 41 18 CFG=3
M  V30 45 1 41 24
M  V30 46 1 42 1
M  V30 47 1 43 1
M  V30 48 1 2 44 CFG=3
M  V30 49 1 4 45 CFG=3
M  V30 50 1 46 5
M  V30 51 1 6 47 CFG=3
M  V30 52 1 7 48 CFG=3
M  V30 53 1 49 8
M  V30 54 1 9 50 CFG=1
M  V30 55 1 51 10
M  V30 56 1 52 10
M  V30 57 1 53 10
M  V30 58 1 13 54 CFG=3
M  V30 59 1 16 55 CFG=1
M  V30 60 1 56 17
M  V30 61 1 57 20
M  V30 62 1 58 20
M  V30 63 1 59 21
M  V30 64 1 60 22
M  V30 65 1 61 23
M  V30 66 1 24 62 CFG=1
M  V30 67 1 63 26
M  V30 68 1 64 26
M  V30 69 1 65 29
M  V30 70 1 66 29
M  V30 71 1 31 67 CFG=1
M  V30 72 1 68 34
M  V30 73 1 69 34
M  V30 74 1 70 35
M  V30 75 1 71 35
M  V30 76 1 72 35
M  V30 77 1 37 73 CFG=3
M  V30 78 1 74 38
M  V30 79 1 75 38
M  V30 80 1 76 38
M  V30 81 1 77 40
M  V30 82 1 78 40
M  V30 83 1 79 30
M  V30 84 1 80 17
M  V30 END BOND
M  V30 END CTAB
M  END
>  <i_epik_Tot_Q>  (1) 
0

>  <i_epik_Tot_abs_Q>  (1) 
4

>  <i_i_glide_confnum>  (1) 
14

>  <i_i_glide_lignum>  (1) 
170

>  <i_i_glide_posenum>  (1) 
185

>  <i_i_glide_rotatable_bonds>  (1) 
16

>  <i_lp_mmshare_version>  (1) 
72125

>  <i_m_source_file_index>  (1) 
91

>  <i_f3d_flags>  (1) 
0

>  <num_sample>  (1) 
100

>  <b_lp_Chiralities_Consistent>  (1) 
1

>  <r_epik_Charging_Adjusted_Penalty>  (1) 
1.4758035429533554

>  <r_epik_Ionization_Penalty>  (1) 
0.33648449588267881

>  <r_epik_Ionization_Penalty_Charging>  (1) 
0.24231300703988756

>  <r_epik_Ionization_Penalty_Neutral>  (1) 
0.094171488842791265

>  <r_epik_State_Penalty>  (1) 
1.2334905359134678

>  <r_glide_ring_energy>  (1) 
0

>  <r_i_docking_score>  (1) 
-2.8197606441937184

>  <r_i_glide_ecoul>  (1) 
-4.506915846224425

>  <r_i_glide_eff_state_penalty>  (1) 
1.2334905359134678

>  <r_i_glide_einternal>  (1) 
15.8571598872769

>  <r_i_glide_emodel>  (1) 
-36.185221151450193

>  <r_i_glide_emodel_strain>  (1) 
6.5048849618010536

>  <r_i_glide_energy>  (1) 
-39.16517313240648

>  <r_i_glide_erotb>  (1) 
0.57888693115673628

>  <r_i_glide_esite>  (1) 
-0.2120326702950672

>  <r_i_glide_evdw>  (1) 
-34.658257286182057

>  <r_i_glide_gscore>  (1) 
-4.0532511801071864

>  <r_i_glide_gscore_strain>  (1) 
0.62622124045026339

>  <r_i_glide_hbond>  (1) 
-0.15048616847885876

>  <r_i_glide_ligand_efficiency>  (1) 
-0.068774649858383372

>  <r_i_glide_ligand_efficiency_ln>  (1) 
-0.59822160439890604

>  <r_i_glide_ligand_efficiency_sa>  (1) 
-0.23714993334296328

>  <r_i_glide_lipo>  (1) 
-1.9980852713548407

>  <r_i_glide_metal>  (1) 
-0

>  <r_i_glide_rewards>  (1) 
-0.48880500034265245

>  <r_lp_Energy>  (1) 
63.663981999999997

>  <s_epik_Chemistry_Notes>  (1) 
This compound has an imine and may undergo hydrolysis. This compound contains an acetal/aminal-like group ( X-CH(R)-Y where X, Y are N, S, or O) that may be acid/base labile, releasing an aldehyde.

>  <s_epik_cmdline>  (1) 
J2VwaWtfcHl0aG9uJywgJy1waHQnLCAnMS4wJywgJy1waCcsICc3LjQnLCAnLXRuJywgJzgnLCAnLW1hJywgJzUwMCcsICctaW1hZScsICc8aW5maWxlLm1hZT4nLCAnLW9tYWUnLCAnPG91dGZpbGUubWFlPic=

>  <s_epik_input>  (1) 
W0NIM11PW0NIMl1PW0NASF0xW0NIMl1bQ0gyXW4oYzEyKVtjSF1jKG4yKVtDQEBIXTNbQ0gyXVtDQEBIXShbT0hdKU4oW0NAQF0zNDUpW0NASF0oW0NIMl1bQ0BIXShbT0hdKVtDQEBIXTVbQ0BIXTRbT0hdKVtDQEBIXShbQ0gyXVtPSF0pW05IXVtDQEBIXShbT0hdKVtDQEhdKFtDSDNdKUMoXEMoPU8pW09IXSk9Ti9DKD1PKVtDSDNd

>  <s_glide_docking_method>  (1) 
confgen

>  <s_i_glide_gridfile>  (1) 
gpcr_drd2_6luq_protein_autoprepared_prepared

>  <s_lp_Force_Field>  (1) 
S-OPLS

>  <s_lp_Variant>  (1) 
DiffSBDD_90-5

>  <s_m_source_file>  (1) 
generated_generic_title2_ligand_DiffSBDD_2026-06-23_prepared.sdf

>  <GenAI_Model>  (1) 
DiffSBDD

>  <Protein>  (1) 
generic_title2

$$$$
DiffSBDD_90
     RDKit          3D

  0  0  0  0  0  0  0  0  0  0999 V3000
M  V30 BEGIN CTAB
M  V30 COUNTS 80 84 0 0 1
M  V30 BEGIN ATOM
M  V30 1 C 7.380321 6.331413 -14.117845 0
M  V30 2 C 8.524180 5.530231 -13.471198 0 CFG=1
M  V30 3 C 9.722086 7.275789 -10.453634 0
M  V30 4 C 10.092576 3.340859 -17.848866 0 CFG=2
M  V30 5 C 10.659250 6.558582 -12.292764 0
M  V30 6 C 9.676275 7.908257 -9.145768 0 CFG=2
M  V30 7 C 7.107629 2.728108 -15.421220 0 CFG=2
M  V30 8 O 7.131277 5.629442 -16.390501 0
M  V30 9 C 6.734175 5.299500 -15.085376 0 CFG=1
M  V30 10 C 10.534928 3.332024 -20.457291 0
M  V30 11 O 6.972143 4.589140 -19.464408 0
M  V30 12 C 9.316418 6.227625 -12.376157 0
M  V30 13 C 6.979499 3.726386 -12.273521 0 CFG=2
M  V30 14 O 7.391432 6.789730 -19.605112 0 CHG=-1
M  V30 15 O 10.664826 2.049246 -17.874603 0
M  V30 16 C 8.158741 2.301508 -16.504107 0 CFG=2
M  V30 17 N 9.010552 3.450723 -16.862991 0
M  V30 18 N 7.362115 4.025717 -14.744166 0
M  V30 19 C 11.454092 6.274492 -19.136416 0
M  V30 20 C 7.483234 1.653056 -17.743912 0
M  V30 21 O 7.144113 4.390422 -11.041722 0
M  V30 22 O 6.759989 0.481161 -17.428939 0
M  V30 23 O 7.375467 0.516733 -12.422415 0
M  V30 24 C 8.163532 2.841899 -12.629515 0 CFG=1
M  V30 25 C 7.725098 5.589039 -19.490842 0
M  V30 26 C 6.836125 1.594705 -14.418549 0
M  V30 27 N 10.819976 7.190222 -11.089228 0
M  V30 28 O 12.153035 5.295242 -18.896485 0
M  V30 29 C 11.214399 8.368173 -9.201990 0
M  V30 30 N 8.765675 6.705058 -11.194256 0 CHG=1
M  V30 31 C 9.652386 3.807487 -19.273879 0 CFG=2
M  V30 32 O 10.428166 7.641703 -6.142051 0
M  V30 33 O 9.434570 6.958700 -8.118048 0
M  V30 34 C 9.233285 7.483027 -6.844565 0
M  V30 35 C 12.093744 7.653538 -19.236627 0
M  V30 36 C 9.229447 5.321698 -19.360072 0
M  V30 37 C 7.891575 1.491801 -13.309672 0 CFG=2
M  V30 38 C 10.829582 8.982264 -5.897510 0
M  V30 39 N 10.078862 6.298016 -19.328943 0
M  V30 40 C 11.973871 7.722017 -10.446135 0
M  V30 41 C 7.906784 4.123970 -13.408573 0 CFG=1
M  V30 42 H 6.656958 6.629977 -13.359368 0
M  V30 43 H 7.732618 7.235570 -14.613957 0
M  V30 44 H 9.280822 5.440834 -14.254831 0
M  V30 45 H 10.891250 3.981194 -17.489301 0
M  V30 46 H 11.478297 6.390878 -12.976893 0
M  V30 47 H 8.975375 8.742751 -9.175751 0
M  V30 48 H 6.175412 2.800426 -15.961280 0
M  V30 49 H 6.639224 5.132223 -17.030609 0
M  V30 50 H 5.648216 5.263472 -14.990700 0
M  V30 51 H 10.221966 3.804488 -21.388662 0
M  V30 52 H 11.598305 3.512987 -20.336471 0
M  V30 53 H 10.431193 2.257112 -20.606731 0
M  V30 54 H 5.956398 3.421466 -12.480343 0
M  V30 55 H 10.738346 1.779996 -18.777503 0
M  V30 56 H 8.809480 1.547067 -16.060016 0
M  V30 57 H 9.326711 3.917377 -16.019353 0
M  V30 58 H 8.225640 1.343371 -18.476646 0
M  V30 59 H 6.810793 2.355058 -18.237160 0
M  V30 60 H 6.779778 3.854397 -10.351755 0
M  V30 61 H 5.957034 0.723144 -16.993833 0
M  V30 62 H 7.192362 -0.273114 -12.910633 0
M  V30 63 H 9.013635 2.845848 -11.950341 0
M  V30 64 H 5.852156 1.753615 -13.977450 0
M  V30 65 H 6.757274 0.634853 -14.925010 0
M  V30 66 H 11.253755 9.453219 -9.298014 0
M  V30 67 H 11.749666 8.119206 -8.288011 0
M  V30 68 H 8.774994 3.209614 -19.485439 0
M  V30 69 H 8.615452 8.383966 -6.865870 0
M  V30 70 H 8.659439 6.722446 -6.315488 0
M  V30 71 H 12.367577 7.990368 -18.237091 0
M  V30 72 H 12.999347 7.611955 -19.842136 0
M  V30 73 H 11.417297 8.388097 -19.678471 0
M  V30 74 H 8.831301 1.122798 -13.719878 0
M  V30 75 H 11.831246 8.980776 -5.469356 0
M  V30 76 H 10.854674 9.589908 -6.798324 0
M  V30 77 H 10.175423 9.475900 -5.185089 0
M  V30 78 H 12.575463 6.893916 -10.088580 0
M  V30 79 H 12.552254 8.390482 -11.079983 0
M  V30 80 H 7.787804 6.629048 -10.920009 0
M  V30 END ATOM
M  V30 BEGIN BOND
M  V30 1 1 2 1
M  V30 2 1 6 3
M  V30 3 1 9 1
M  V30 4 1 9 8
M  V30 5 1 12 2
M  V30 6 2 12 5
M  V30 7 1 15 4
M  V30 8 1 16 7
M  V30 9 1 17 4
M  V30 10 1 17 16
M  V30 11 1 18 7
M  V30 12 1 18 9
M  V30 13 1 20 16
M  V30 14 1 21 13
M  V30 15 1 22 20
M  V30 16 1 24 13
M  V30 17 2 25 11
M  V30 18 1 25 14
M  V30 19 1 26 7
M  V30 20 1 27 3
M  V30 21 1 27 5
M  V30 22 2 28 19
M  V30 23 1 29 6
M  V30 24 2 30 3
M  V30 25 1 30 12
M  V30 26 1 31 4
M  V30 27 1 31 10
M  V30 28 1 33 6
M  V30 29 1 34 32
M  V30 30 1 34 33
M  V30 31 1 35 19
M  V30 32 1 36 25
M  V30 33 1 36 31
M  V30 34 1 37 23
M  V30 35 1 37 24
M  V30 36 1 37 26
M  V30 37 1 38 32
M  V30 38 1 39 19
M  V30 39 2 39 36
M  V30 40 1 40 27
M  V30 41 1 40 29
M  V30 42 1 41 2
M  V30 43 1 41 13
M  V30 44 1 41 18 CFG=3
M  V30 45 1 41 24
M  V30 46 1 42 1
M  V30 47 1 43 1
M  V30 48 1 2 44 CFG=3
M  V30 49 1 4 45 CFG=1
M  V30 50 1 46 5
M  V30 51 1 6 47 CFG=3
M  V30 52 1 7 48 CFG=3
M  V30 53 1 49 8
M  V30 54 1 9 50 CFG=3
M  V30 55 1 51 10
M  V30 56 1 52 10
M  V30 57 1 53 10
M  V30 58 1 13 54 CFG=3
M  V30 59 1 55 15
M  V30 60 1 16 56 CFG=1
M  V30 61 1 57 17
M  V30 62 1 58 20
M  V30 63 1 59 20
M  V30 64 1 60 21
M  V30 65 1 61 22
M  V30 66 1 62 23
M  V30 67 1 24 63 CFG=1
M  V30 68 1 64 26
M  V30 69 1 65 26
M  V30 70 1 66 29
M  V30 71 1 67 29
M  V30 72 1 31 68 CFG=3
M  V30 73 1 69 34
M  V30 74 1 70 34
M  V30 75 1 71 35
M  V30 76 1 72 35
M  V30 77 1 73 35
M  V30 78 1 37 74 CFG=3
M  V30 79 1 75 38
M  V30 80 1 76 38
M  V30 81 1 77 38
M  V30 82 1 78 40
M  V30 83 1 79 40
M  V30 84 1 80 30
M  V30 END BOND
M  V30 END CTAB
M  END
>  <i_epik_Tot_Q>  (1) 
0

>  <i_epik_Tot_abs_Q>  (1) 
2

>  <i_i_glide_confnum>  (1) 
305

>  <i_i_glide_lignum>  (1) 
172

>  <i_i_glide_posenum>  (1) 
163

>  <i_i_glide_rotatable_bonds>  (1) 
17

>  <i_lp_mmshare_version>  (1) 
72125

>  <i_m_source_file_index>  (1) 
91

>  <i_f3d_flags>  (1) 
0

>  <num_sample>  (1) 
100

>  <b_lp_Chiralities_Consistent>  (1) 
1

>  <r_epik_Charging_Adjusted_Penalty>  (1) 
1.2730775069092737

>  <r_epik_Ionization_Penalty>  (1) 
0.33079184029548347

>  <r_epik_Ionization_Penalty_Charging>  (1) 
4.3976256739559524e-06

>  <r_epik_Ionization_Penalty_Neutral>  (1) 
0.33078744266980953

>  <r_epik_State_Penalty>  (1) 
1.2730731092835996

>  <r_glide_ring_energy>  (1) 
0

>  <r_i_docking_score>  (1) 
-2.802363878501096

>  <r_i_glide_ecoul>  (1) 
-2.5796900875557713

>  <r_i_glide_eff_state_penalty>  (1) 
1.2730731092835996

>  <r_i_glide_einternal>  (1) 
24.731995336273847

>  <r_i_glide_emodel>  (1) 
-29.018831743240526

>  <r_i_glide_emodel_strain>  (1) 
5.3997416899936184

>  <r_i_glide_energy>  (1) 
-36.130719529568836

>  <r_i_glide_erotb>  (1) 
0.57888693115673628

>  <r_i_glide_esite>  (1) 
-0.27845400636520795

>  <r_i_glide_evdw>  (1) 
-33.551029442013068

>  <r_i_glide_gscore>  (1) 
-4.0754369877846957

>  <r_i_glide_gscore_strain>  (1) 
0.34993542249840459

>  <r_i_glide_hbond>  (1) 
-0.072760011153564133

>  <r_i_glide_ligand_efficiency>  (1) 
-0.068350338500026739

>  <r_i_glide_ligand_efficiency_ln>  (1) 
-0.59453082266343427

>  <r_i_glide_ligand_efficiency_sa>  (1) 
-0.2356868156017877

>  <r_i_glide_lipo>  (1) 
-2.1960554339378513

>  <r_i_glide_metal>  (1) 
-0

>  <r_i_glide_rewards>  (1) 
-0.39248490474919401

>  <r_lp_Energy>  (1) 
62.565444999999997

>  <s_epik_Chemistry_Notes>  (1) 
This compound has an imine and may undergo hydrolysis. This compound contains an acetal/aminal-like group ( X-CH(R)-Y where X, Y are N, S, or O) that may be acid/base labile, releasing an aldehyde.

>  <s_epik_cmdline>  (1) 
J2VwaWtfcHl0aG9uJywgJy1waHQnLCAnMS4wJywgJy1waCcsICc3LjQnLCAnLXRuJywgJzgnLCAnLW1hJywgJzUwMCcsICctaW1hZScsICc8aW5maWxlLm1hZT4nLCAnLW9tYWUnLCAnPG91dGZpbGUubWFlPic=

>  <s_epik_input>  (1) 
W0NIM11PW0NIMl1PW0NASF0xW0NIMl1bQ0gyXW4oYzEyKVtjSF1jKG4yKVtDQEBIXTNbQ0gyXVtDQEBIXShbT0hdKU4oW0NAQF0zNDUpW0NASF0oW0NIMl1bQ0BIXShbT0hdKVtDQEBIXTVbQ0BIXTRbT0hdKVtDQEBIXShbQ0gyXVtPSF0pW05IXVtDQEBIXShbT0hdKVtDQEhdKFtDSDNdKUMoXEMoPU8pW09IXSk9Ti9DKD1PKVtDSDNd

>  <s_glide_docking_method>  (1) 
confgen

>  <s_i_glide_gridfile>  (1) 
gpcr_drd2_6luq_protein_autoprepared_prepared

>  <s_lp_Force_Field>  (1) 
S-OPLS

>  <s_lp_Variant>  (1) 
DiffSBDD_90-7

>  <s_m_source_file>  (1) 
generated_generic_title2_ligand_DiffSBDD_2026-06-23_prepared.sdf

>  <GenAI_Model>  (1) 
DiffSBDD

>  <Protein>  (1) 
generic_title2

$$$$
DiffSBDD_74
     RDKit          3D

  0  0  0  0  0  0  0  0  0  0999 V3000
M  V30 BEGIN CTAB
M  V30 COUNTS 92 99 0 0 1
M  V30 BEGIN ATOM
M  V30 1 C 8.369121 -1.684477 -21.008632 0 CFG=2
M  V30 2 N 7.446543 4.585286 -14.398402 0
M  V30 3 C 7.037750 5.291317 -12.138948 0
M  V30 4 C 8.002061 4.859217 -15.713575 0
M  V30 5 F 10.065131 2.431026 -18.952517 0
M  V30 6 O 8.236697 -3.801850 -19.692195 0
M  V30 7 O 7.384094 -0.383817 -16.229002 0
M  V30 8 C 6.313087 3.650153 -14.265403 0 CFG=2
M  V30 9 C 8.499592 5.667232 -8.735038 0
M  V30 10 C 7.895380 -2.430798 -19.709215 0 CFG=1
M  V30 11 C 5.627037 -1.620935 -18.152226 0 CFG=2
M  V30 12 C 7.907309 5.245316 -13.197105 0
M  V30 13 C 8.118151 -0.009710 -13.329626 0
M  V30 14 C 7.976319 0.004600 -18.978979 0 CFG=1
M  V30 15 C 8.577646 5.851773 -10.145814 0
M  V30 16 C 9.542614 1.250360 -18.626149 0
M  V30 17 C 7.342698 2.625822 -18.635188 0 CFG=2
M  V30 18 C 6.135609 0.161059 -16.524378 0 CFG=1
M  V30 19 C 9.022907 0.510290 -19.904899 0 CFG=1
M  V30 20 O 7.304113 4.168930 -16.659776 0
M  V30 21 O 4.575467 -3.022493 -19.845815 0
M  V30 22 O 7.080704 -3.443015 -17.585072 0
M  V30 23 C 4.718531 -1.699240 -19.355068 0 CFG=1
M  V30 24 S 8.175404 1.664148 -13.880328 0 CHG=1
M  V30 25 C 5.074434 -0.031409 -15.448402 0
M  V30 26 C 3.375421 -1.189882 -18.878665 0
M  V30 27 C 8.730130 -2.632462 -22.167703 0
M  V30 28 N 8.575306 5.582619 -7.585604 0
M  V30 29 C 5.605179 4.759831 -12.221998 0
M  V30 30 C 9.281873 5.843045 -13.168520 0
M  V30 31 C 9.375512 -1.793095 -17.582570 0
M  V30 32 C 8.190570 -1.486312 -18.526959 0 CFG=2
M  V30 33 O 8.941186 5.590110 -15.991583 0
M  V30 34 C 5.826458 2.549199 -18.879915 0
M  V30 35 C 8.453584 1.605250 -15.682803 0
M  V30 36 C 9.551418 -0.659679 -20.742685 0
M  V30 37 F 10.434210 0.611997 -17.881186 0
M  V30 38 C 8.035990 1.286401 -18.109045 0 CFG=1
M  V30 39 C 9.760161 6.000325 -10.684991 0
M  V30 40 C 7.779399 3.980700 -17.981768 0
M  V30 41 C 7.486959 0.980528 -16.661530 0 CFG=1
M  V30 42 C 5.145206 4.360559 -13.616788 0
M  V30 43 O 5.646185 -0.226240 -17.795612 0
M  V30 44 C 6.606642 2.373925 -13.460073 0
M  V30 45 C 7.315085 5.982640 -10.884553 0
M  V30 46 C 6.971674 -2.284511 -18.421568 0 CFG=1
M  V30 47 C 10.057046 6.170210 -12.095186 0
M  V30 48 H 7.511084 -1.123232 -21.379317 0
M  V30 49 H 7.890974 -4.102252 -18.851484 0
M  V30 50 H 6.175396 3.131443 -15.185879 0
M  V30 51 H 5.139307 -2.165142 -17.340956 0
M  V30 52 H 9.105417 -0.409769 -13.545930 0
M  V30 53 H 7.371158 -0.618329 -13.820879 0
M  V30 54 H 7.931038 -0.009858 -12.260874 0
M  V30 55 H 7.064310 0.079598 -19.568608 0
M  V30 56 H 7.694363 2.801302 -19.647630 0
M  V30 57 H 8.595409 1.230183 -20.601715 0
M  V30 58 H 5.418601 -3.367015 -20.098254 0
M  V30 59 H 7.254589 -3.178983 -16.682366 0
M  V30 60 H 5.095324 -1.071432 -20.162347 0
M  V30 61 H 4.481660 -0.918455 -15.661995 0
M  V30 62 H 4.369080 0.790198 -15.425650 0
M  V30 63 H 5.477956 -0.200198 -14.459867 0
M  V30 64 H 3.383992 -0.730132 -17.892098 0
M  V30 65 H 2.659701 -2.009950 -18.785004 0
M  V30 66 H 3.021684 -0.413873 -19.574287 0
M  V30 67 H 9.615330 -3.227236 -21.940820 0
M  V30 68 H 8.939124 -2.068213 -23.077581 0
M  V30 69 H 7.910380 -3.316384 -22.392296 0
M  V30 70 H 5.444162 3.977358 -11.480714 0
M  V30 71 H 4.975408 5.579633 -11.886049 0
M  V30 72 H 9.764244 5.990205 -14.090852 0
M  V30 73 H 9.391709 -1.222043 -16.665449 0
M  V30 74 H 10.332520 -1.609743 -18.046515 0
M  V30 75 H 9.375431 -2.829549 -17.266610 0
M  V30 76 H 5.292761 2.263056 -17.985062 0
M  V30 77 H 5.584360 1.813053 -19.650362 0
M  V30 78 H 5.433019 3.511137 -19.214094 0
M  V30 79 H 8.803428 2.555019 -16.028278 0
M  V30 80 H 9.375293 1.108678 -15.877167 0
M  V30 81 H 10.395126 -1.154630 -20.269020 0
M  V30 82 H 9.927852 -0.278227 -21.691414 0
M  V30 83 H 10.575401 5.990283 -10.006101 0
M  V30 84 H 8.863749 4.082993 -17.998075 0
M  V30 85 H 7.399692 4.805875 -18.584318 0
M  V30 86 H 4.878898 5.249955 -14.189521 0
M  V30 87 H 4.258399 3.727705 -13.564085 0
M  V30 88 H 6.678022 2.511679 -12.384683 0
M  V30 89 H 5.800013 1.664631 -13.593674 0
M  V30 90 H 7.215920 7.025739 -11.185030 0
M  V30 91 H 6.510010 5.764666 -10.179980 0
M  V30 92 H 11.044201 6.542584 -12.327192 0
M  V30 END ATOM
M  V30 BEGIN BOND
M  V30 1 1 4 2
M  V30 2 1 8 2
M  V30 3 1 10 1
M  V30 4 1 10 6 CFG=1
M  V30 5 1 12 2
M  V30 6 2 12 3
M  V30 7 1 15 9
M  V30 8 1 16 5
M  V30 9 1 18 7
M  V30 10 1 19 14
M  V30 11 1 19 16
M  V30 12 1 20 4
M  V30 13 1 23 11
M  V30 14 1 23 21
M  V30 15 1 24 13 CFG=3
M  V30 16 1 18 25 CFG=1
M  V30 17 1 26 23
M  V30 18 1 27 1
M  V30 19 3 28 9
M  V30 20 1 29 3
M  V30 21 1 30 12
M  V30 22 1 32 10
M  V30 23 1 32 14
M  V30 24 1 32 31 CFG=1
M  V30 25 2 33 4
M  V30 26 1 34 17
M  V30 27 1 35 24
M  V30 28 1 36 1
M  V30 29 1 36 19
M  V30 30 1 37 16
M  V30 31 1 38 14
M  V30 32 1 38 16 CFG=1
M  V30 33 1 38 17
M  V30 34 2 39 15
M  V30 35 1 40 17
M  V30 36 1 40 20
M  V30 37 1 41 7 CFG=1
M  V30 38 1 41 18
M  V30 39 1 41 35
M  V30 40 1 41 38
M  V30 41 1 42 8
M  V30 42 1 42 29
M  V30 43 1 43 11
M  V30 44 1 43 18
M  V30 45 1 44 8
M  V30 46 1 44 24
M  V30 47 1 45 3
M  V30 48 1 45 15
M  V30 49 1 46 10
M  V30 50 1 46 11
M  V30 51 1 46 22 CFG=1
M  V30 52 1 46 32
M  V30 53 2 47 30
M  V30 54 1 47 39
M  V30 55 1 1 48 CFG=3
M  V30 56 1 49 6
M  V30 57 1 8 50 CFG=3
M  V30 58 1 11 51 CFG=1
M  V30 59 1 52 13
M  V30 60 1 53 13
M  V30 61 1 54 13
M  V30 62 1 14 55 CFG=3
M  V30 63 1 17 56 CFG=3
M  V30 64 1 19 57 CFG=3
M  V30 65 1 58 21
M  V30 66 1 59 22
M  V30 67 1 23 60 CFG=3
M  V30 68 1 61 25
M  V30 69 1 62 25
M  V30 70 1 63 25
M  V30 71 1 64 26
M  V30 72 1 65 26
M  V30 73 1 66 26
M  V30 74 1 67 27
M  V30 75 1 68 27
M  V30 76 1 69 27
M  V30 77 1 70 29
M  V30 78 1 71 29
M  V30 79 1 72 30
M  V30 80 1 73 31
M  V30 81 1 74 31
M  V30 82 1 75 31
M  V30 83 1 76 34
M  V30 84 1 77 34
M  V30 85 1 78 34
M  V30 86 1 79 35
M  V30 87 1 80 35
M  V30 88 1 81 36
M  V30 89 1 82 36
M  V30 90 1 83 39
M  V30 91 1 84 40
M  V30 92 1 85 40
M  V30 93 1 86 42
M  V30 94 1 87 42
M  V30 95 1 88 44
M  V30 96 1 89 44
M  V30 97 1 90 45
M  V30 98 1 91 45
M  V30 99 1 92 47
M  V30 END BOND
M  V30 END CTAB
M  END
>  <i_epik_Tot_Q>  (1) 
1

>  <i_epik_Tot_abs_Q>  (1) 
1

>  <i_i_glide_confnum>  (1) 
4

>  <i_i_glide_lignum>  (1) 
122

>  <i_i_glide_posenum>  (1) 
62

>  <i_i_glide_rotatable_bonds>  (1) 
4

>  <i_lp_mmshare_version>  (1) 
72125

>  <i_m_source_file_index>  (1) 
75

>  <i_f3d_flags>  (1) 
0

>  <num_sample>  (1) 
100

>  <b_lp_Chiralities_Consistent>  (1) 
1

>  <r_epik_Charging_Adjusted_Penalty>  (1) 
0

>  <r_epik_Ionization_Penalty>  (1) 
2.279428951435475e-07

>  <r_epik_Ionization_Penalty_Charging>  (1) 
0

>  <r_epik_Ionization_Penalty_Neutral>  (1) 
2.279428951435475e-07

>  <r_epik_State_Penalty>  (1) 
-0

>  <r_glide_ring_energy>  (1) 
0

>  <r_i_docking_score>  (1) 
-2.7860004624797927

>  <r_i_glide_ecoul>  (1) 
-5.2380725013490048

>  <r_i_glide_eff_state_penalty>  (1) 
-0

>  <r_i_glide_einternal>  (1) 
1.7063526868471302

>  <r_i_glide_emodel>  (1) 
-1.6837229815456514

>  <r_i_glide_emodel_strain>  (1) 
9.6274463255228397

>  <r_i_glide_energy>  (1) 
-7.6245585033010101

>  <r_i_glide_erotb>  (1) 
0.046727806610761473

>  <r_i_glide_esite>  (1) 
-0.10000000000000001

>  <r_i_glide_evdw>  (1) 
-2.3864860019520053

>  <r_i_glide_gscore>  (1) 
-2.7860004624797927

>  <r_i_glide_gscore_strain>  (1) 
1.4068615813807099

>  <r_i_glide_hbond>  (1) 
-0.32000000000000001

>  <r_i_glide_ligand_efficiency>  (1) 
-0.059276605584676442

>  <r_i_glide_ligand_efficiency_ln>  (1) 
-0.57441560366070266

>  <r_i_glide_ligand_efficiency_sa>  (1) 
-0.21391896017607537

>  <r_i_glide_lipo>  (1) 
-1.5798440331883443

>  <r_i_glide_metal>  (1) 
-0

>  <r_i_glide_rewards>  (1) 
-1.3347106419829684

>  <r_lp_Energy>  (1) 
160.485421

>  <r_lp_tautomer_probability>  (1) 
1

>  <s_epik_Chemistry_Notes>  (1) 
This compound has an ester and may undergo hydrolysis at high or low pH.

>  <s_epik_cmdline>  (1) 
J2VwaWtfcHl0aG9uJywgJy1waHQnLCAnMS4wJywgJy1waCcsICc3LjQnLCAnLXRuJywgJzgnLCAnLW1hJywgJzUwMCcsICctaW1hZScsICc8aW5maWxlLm1hZT4nLCAnLW9tYWUnLCAnPG91dGZpbGUubWFlPic=

>  <s_epik_input>  (1) 
W0NIM11bQ0BASF0xW0NIMl1bQ0BIXShDMihGKUYpW0NASF0zW0NAXTQoW0NIM10pW0NAQF0xKFtPSF0pQzQoW09IXSlbQ0BIXShbQ0BASF0oW09IXSlbQ0gzXSlPW0NAQF0oTzUpKFtDSDNdKVtDQEBdNShbQ0BdMjM2KVtDSDJdW1MrXShbQ0gzXSlbQ0gyXVtDQEhdN04oQyg9TylPW0NIMl1bQ0BASF02W0NIM10pQzg9QyhbQ0gyXVtDSDJdNylbQ0gyXUMoQyNOKT1bQ0hdW0NIXT1bQ0hdOA==

>  <s_glide_docking_method>  (1) 
confgen

>  <s_i_glide_gridfile>  (1) 
gpcr_drd2_6luq_protein_autoprepared_prepared

>  <s_lp_Force_Field>  (1) 
S-OPLS

>  <s_lp_Variant>  (1) 
DiffSBDD_74-2

>  <s_m_source_file>  (1) 
generated_generic_title2_ligand_DiffSBDD_2026-06-23_prepared.sdf

>  <GenAI_Model>  (1) 
DiffSBDD

>  <Protein>  (1) 
generic_title2

$$$$
DiffSBDD_3
     RDKit          3D

  0  0  0  0  0  0  0  0  0  0999 V3000
M  V30 BEGIN CTAB
M  V30 COUNTS 88 96 0 0 1
M  V30 BEGIN ATOM
M  V30 1 C 6.736904 1.265491 -17.283936 0
M  V30 2 O 8.935752 2.094422 -21.198478 0
M  V30 3 C 3.283969 11.317824 -22.218779 0
M  V30 4 C 6.199163 6.379749 -19.164157 0
M  V30 5 C 5.172095 -3.277038 -18.364503 0
M  V30 6 C 7.950755 3.986307 -22.312778 0 CFG=2
M  V30 7 C 4.576990 -3.789111 -19.640052 0
M  V30 8 C 4.075098 9.116156 -21.001807 0 CFG=2
M  V30 9 O 9.207569 4.112410 -22.955599 0
M  V30 10 C 3.454272 8.744035 -22.311526 0
M  V30 11 C 8.062063 6.239947 -21.142244 0 CFG=2
M  V30 12 C 7.738105 -1.002265 -17.467960 0
M  V30 13 C 9.372750 1.031286 -22.031119 0
M  V30 14 C 7.800568 -2.293660 -19.646959 0
M  V30 15 C 7.686181 2.694957 -21.541592 0 CFG=2
M  V30 16 C 7.669638 -2.394264 -18.109860 0 CFG=2
M  V30 17 C 5.512725 10.192273 -22.956615 0 CFG=2
M  V30 18 C 6.621321 -0.086543 -18.022528 0 CFG=1
M  V30 19 C 6.671534 2.575175 -20.409919 0
M  V30 20 C 4.299029 -4.493241 -18.307393 0
M  V30 21 C 7.241356 2.833193 -22.989318 0
M  V30 22 C 6.434911 8.309309 -21.495509 0 CFG=2
M  V30 23 C 7.567838 6.661625 -19.777197 0 CFG=1
M  V30 24 C 5.151027 -2.190250 -17.374354 0 CFG=2
M  V30 25 C 6.864786 -1.247212 -20.285447 0
M  V30 26 C 5.840926 11.573888 -23.541729 0
M  V30 27 C 7.687905 7.692707 -20.886928 0 CFG=1
M  V30 28 C 5.204939 -0.703206 -17.739998 0
M  V30 29 C 4.177257 10.078503 -22.185766 0 CFG=1
M  V30 30 C 6.910132 0.107862 -19.549323 0 CFG=1
M  V30 31 C 6.036284 1.171336 -20.271621 0
M  V30 32 F 2.720034 11.478959 -23.415284 0
M  V30 33 C 6.425479 -3.115551 -17.617054 0 CFG=1
M  V30 34 C 7.285143 5.334561 -22.091493 0
M  V30 35 C 4.998109 7.023263 -19.886461 0
M  V30 36 C 6.713524 9.674714 -22.137802 0
M  V30 37 C 5.313861 8.420173 -20.448859 0 CFG=2
M  V30 38 H 6.640200 1.138140 -16.204939 0
M  V30 39 H 7.702585 1.738676 -17.465081 0
M  V30 40 H 5.960907 1.965350 -17.591799 0
M  V30 41 H 2.470071 11.220871 -21.499543 0
M  V30 42 H 3.830194 12.229147 -21.985026 0
M  V30 43 H 6.059597 5.303190 -19.064401 0
M  V30 44 H 6.225027 6.773884 -18.147496 0
M  V30 45 H 3.775526 -3.209878 -20.086229 0
M  V30 46 H 5.244210 -4.283893 -20.342333 0
M  V30 47 H 3.363452 9.381087 -20.221998 0
M  V30 48 H 9.074273 4.512690 -23.800591 0
M  V30 49 H 3.920546 7.954433 -22.896578 0
M  V30 50 H 2.371983 8.790343 -22.398707 0
M  V30 51 H 9.137631 6.089434 -21.217782 0
M  V30 52 H 7.654036 -1.092220 -16.384817 0
M  V30 53 H 8.718750 -0.561715 -17.652718 0
M  V30 54 H 10.186857 0.498643 -21.540008 0
M  V30 55 H 8.573415 0.320574 -22.230793 0
M  V30 56 H 9.751395 1.403593 -22.982910 0
M  V30 57 H 7.648490 -3.270379 -20.107416 0
M  V30 58 H 8.826460 -2.009215 -19.884558 0
M  V30 59 H 8.519638 -2.973814 -17.745836 0
M  V30 60 H 5.419956 9.532352 -23.820663 0
M  V30 61 H 7.137962 2.901479 -19.481804 0
M  V30 62 H 5.864300 3.280285 -20.602956 0
M  V30 63 H 4.784041 -5.450711 -18.129406 0
M  V30 64 H 3.311157 -4.381094 -17.865022 0
M  V30 65 H 6.172921 2.940317 -23.166904 0
M  V30 66 H 7.766031 2.272480 -23.759486 0
M  V30 67 H 6.098474 7.651253 -22.293361 0
M  V30 68 H 8.352655 6.671348 -19.023301 0
M  V30 69 H 4.575811 -2.389631 -16.473336 0
M  V30 70 H 5.839427 -1.603239 -20.316932 0
M  V30 71 H 7.145219 -1.121892 -21.329816 0
M  V30 72 H 5.958704 12.330020 -22.785043 0
M  V30 73 H 6.781507 11.546757 -24.088501 0
M  V30 74 H 5.056819 11.927181 -24.201451 0
M  V30 75 H 8.518291 8.388056 -20.784984 0
M  V30 76 H 4.751487 -0.177499 -16.898733 0
M  V30 77 H 4.517157 -0.532343 -18.567291 0
M  V30 78 H 7.941438 0.448358 -19.628550 0
M  V30 79 H 5.079333 1.270603 -19.761396 0
M  V30 80 H 5.775094 0.824335 -21.272112 0
M  V30 81 H 6.617358 -3.880671 -16.866710 0
M  V30 82 H 7.212388 5.828923 -23.060273 0
M  V30 83 H 6.267640 5.192839 -21.736609 0
M  V30 84 H 4.649415 6.374961 -20.689581 0
M  V30 85 H 4.175327 7.090824 -19.177280 0
M  V30 86 H 7.583596 9.598638 -22.792700 0
M  V30 87 H 6.981491 10.390220 -21.361337 0
M  V30 88 H 5.672394 9.044355 -19.629023 0
M  V30 END ATOM
M  V30 BEGIN BOND
M  V30 1 1 7 5
M  V30 2 1 6 9 CFG=3
M  V30 3 1 10 8
M  V30 4 1 13 2
M  V30 5 1 15 2 CFG=3
M  V30 6 1 15 6
M  V30 7 1 16 12
M  V30 8 1 16 14
M  V30 9 1 18 1 CFG=1
M  V30 10 1 18 12
M  V30 11 1 19 15
M  V30 12 1 20 5
M  V30 13 1 20 7
M  V30 14 1 21 6
M  V30 15 1 21 15
M  V30 16 1 23 4
M  V30 17 1 23 11
M  V30 18 1 24 5
M  V30 19 1 25 14
M  V30 20 1 26 17
M  V30 21 1 27 11
M  V30 22 1 27 22
M  V30 23 1 27 23
M  V30 24 1 28 18
M  V30 25 1 28 24
M  V30 26 1 29 3 CFG=1
M  V30 27 1 29 8
M  V30 28 1 29 10
M  V30 29 1 29 17
M  V30 30 1 30 18
M  V30 31 1 30 25
M  V30 32 1 31 19
M  V30 33 1 31 30
M  V30 34 1 32 3
M  V30 35 1 33 5
M  V30 36 1 33 16
M  V30 37 1 33 24
M  V30 38 1 34 6
M  V30 39 1 34 11
M  V30 40 1 35 4
M  V30 41 1 36 17
M  V30 42 1 36 22
M  V30 43 1 37 8
M  V30 44 1 37 22
M  V30 45 1 37 35
M  V30 46 1 38 1
M  V30 47 1 39 1
M  V30 48 1 40 1
M  V30 49 1 41 3
M  V30 50 1 42 3
M  V30 51 1 43 4
M  V30 52 1 44 4
M  V30 53 1 45 7
M  V30 54 1 46 7
M  V30 55 1 8 47 CFG=1
M  V30 56 1 48 9
M  V30 57 1 49 10
M  V30 58 1 50 10
M  V30 59 1 11 51 CFG=1
M  V30 60 1 52 12
M  V30 61 1 53 12
M  V30 62 1 54 13
M  V30 63 1 55 13
M  V30 64 1 56 13
M  V30 65 1 57 14
M  V30 66 1 58 14
M  V30 67 1 16 59 CFG=1
M  V30 68 1 17 60 CFG=3
M  V30 69 1 61 19
M  V30 70 1 62 19
M  V30 71 1 63 20
M  V30 72 1 64 20
M  V30 73 1 65 21
M  V30 74 1 66 21
M  V30 75 1 22 67 CFG=3
M  V30 76 1 23 68 CFG=1
M  V30 77 1 24 69 CFG=1
M  V30 78 1 70 25
M  V30 79 1 71 25
M  V30 80 1 72 26
M  V30 81 1 73 26
M  V30 82 1 74 26
M  V30 83 1 27 75 CFG=1
M  V30 84 1 76 28
M  V30 85 1 77 28
M  V30 86 1 30 78 CFG=1
M  V30 87 1 79 31
M  V30 88 1 80 31
M  V30 89 1 33 81 CFG=1
M  V30 90 1 82 34
M  V30 91 1 83 34
M  V30 92 1 84 35
M  V30 93 1 85 35
M  V30 94 1 86 36
M  V30 95 1 87 36
M  V30 96 1 37 88 CFG=1
M  V30 END BOND
M  V30 END CTAB
M  END
>  <i_epik_Tot_Q>  (1) 
0

>  <i_epik_Tot_abs_Q>  (1) 
0

>  <i_i_glide_confnum>  (1) 
124

>  <i_i_glide_lignum>  (1) 
7

>  <i_i_glide_posenum>  (1) 
118

>  <i_i_glide_rotatable_bonds>  (1) 
8

>  <i_lp_mmshare_version>  (1) 
72125

>  <i_m_source_file_index>  (1) 
4

>  <i_f3d_flags>  (1) 
0

>  <num_sample>  (1) 
100

>  <b_lp_Chiralities_Consistent>  (1) 
1

>  <r_epik_Charging_Adjusted_Penalty>  (1) 
0

>  <r_epik_Ionization_Penalty>  (1) 
4.4190122057335124e-08

>  <r_epik_Ionization_Penalty_Charging>  (1) 
0

>  <r_epik_Ionization_Penalty_Neutral>  (1) 
4.4190122057335124e-08

>  <r_epik_State_Penalty>  (1) 
-0

>  <r_glide_ring_energy>  (1) 
0

>  <r_i_docking_score>  (1) 
-2.7851255455280848

>  <r_i_glide_ecoul>  (1) 
1.1187157180045282

>  <r_i_glide_eff_state_penalty>  (1) 
-0

>  <r_i_glide_einternal>  (1) 
1.7720245217334636

>  <r_i_glide_emodel>  (1) 
-27.448542567799876

>  <r_i_glide_emodel_strain>  (1) 
0

>  <r_i_glide_energy>  (1) 
-24.504813284035091

>  <r_i_glide_erotb>  (1) 
0.39265675438420033

>  <r_i_glide_esite>  (1) 
0

>  <r_i_glide_evdw>  (1) 
-25.623529002039618

>  <r_i_glide_gscore>  (1) 
-2.7851255455280848

>  <r_i_glide_gscore_strain>  (1) 
0

>  <r_i_glide_hbond>  (1) 
0

>  <r_i_glide_ligand_efficiency>  (1) 
-0.075273663392650944

>  <r_i_glide_ligand_efficiency_ln>  (1) 
-0.60402843821847574

>  <r_i_glide_ligand_efficiency_sa>  (1) 
-0.25082854601043358

>  <r_i_glide_lipo>  (1) 
-1.8737557053614144

>  <r_i_glide_metal>  (1) 
-0

>  <r_i_glide_rewards>  (1) 
-0.19065750214956911

>  <r_lp_Energy>  (1) 
90.289001999999996

>  <r_lp_tautomer_probability>  (1) 
1

>  <s_epik_cmdline>  (1) 
J2VwaWtfcHl0aG9uJywgJy1waHQnLCAnMS4wJywgJy1waCcsICc3LjQnLCAnLXRuJywgJzgnLCAnLW1hJywgJzUwMCcsICctaW1hZScsICc8aW5maWxlLm1hZT4nLCAnLW9tYWUnLCAnPG91dGZpbGUubWFlPic=

>  <s_epik_input>  (1) 
W0NIMl0xW0NIMl1DMTJbQ0BIXTNbQ0BASF0yW0NAQEhdNFtDSDJdW0NAXShbQ0gzXSkoW0NIMl0zKVtDQEBIXShbQ0gyXVtDSDJdNClbQ0gyXVtDSDJdW0NAXShbQ0gyXTUpKE9bQ0gzXSlbQ0BdNShbT0hdKVtDSDJdW0NAQEhdNltDQEhdKFtDSDJdW0NIMl03KVtDQEBIXTZbQ0BIXShbQ0gyXVtDQEBIXThbQ0gzXSlbQ0BIXTdbQ0BIXShbQ0gyXTkpW0NAQF04OVtDSDJdRg==

>  <s_glide_docking_method>  (1) 
confgen

>  <s_i_glide_gridfile>  (1) 
gpcr_drd2_6luq_protein_autoprepared_prepared

>  <s_lp_Force_Field>  (1) 
S-OPLS

>  <s_lp_Variant>  (1) 
DiffSBDD_3-1

>  <s_m_source_file>  (1) 
generated_generic_title2_ligand_DiffSBDD_2026-06-23_prepared.sdf

>  <GenAI_Model>  (1) 
DiffSBDD

>  <Protein>  (1) 
generic_title2

$$$$
DiffSBDD_40
     RDKit          3D

  0  0  0  0  0  0  0  0  0  0999 V3000
M  V30 BEGIN CTAB
M  V30 COUNTS 89 95 0 0 1
M  V30 BEGIN ATOM
M  V30 1 N 9.376573 6.734755 -10.309933 0
M  V30 2 C 9.699474 5.210534 -8.337497 0
M  V30 3 C 8.192419 4.317271 -18.237294 0
M  V30 4 C 14.069896 5.229970 -17.889591 0
M  V30 5 C 7.386486 4.564100 -17.080409 0
M  V30 6 C 8.933425 5.445619 -9.722557 0 CFG=2
M  V30 7 C 6.556039 6.621621 -18.113084 0
M  V30 8 C 11.252862 4.296055 -18.151674 0 CFG=1
M  V30 9 O 7.423598 5.847592 -12.408592 0
M  V30 10 C 9.102459 3.084154 -18.333943 0 CFG=1
M  V30 11 C 7.384967 3.604522 -15.873133 0 CFG=1
M  V30 12 N 5.454384 4.809803 -12.254858 0
M  V30 13 C 8.539760 4.399427 -10.758357 0 CFG=1
M  V30 14 C 8.074148 1.279761 -16.782678 0
M  V30 15 N 14.175408 8.795247 -18.126765 0 CHG=1
M  V30 16 C 6.162061 5.826375 -12.869078 0
M  V30 17 O 11.055842 1.860651 -17.611305 0
M  V30 18 C 10.426712 6.506449 -8.316712 0
M  V30 19 C 12.417325 3.447700 -18.352980 0
M  V30 20 C 9.414221 4.781976 -13.125958 0
M  V30 21 C 10.821051 8.523879 -9.529121 0
M  V30 22 C 10.217828 7.276242 -9.392971 0
M  V30 23 N 10.344895 3.221636 -17.562595 0
M  V30 24 C 13.699013 4.080731 -18.841500 0
M  V30 25 O 5.730670 6.610062 -13.704756 0
M  V30 26 C 8.160307 5.234007 -19.313091 0
M  V30 27 N 12.582841 7.092626 -18.741675 0
M  V30 28 C 11.608312 5.443509 -17.188371 0
M  V30 29 C 6.576454 5.724021 -17.034347 0
M  V30 30 C 8.384983 1.707989 -18.224246 0 CFG=1
M  V30 31 C 7.344859 6.378795 -19.249268 0
M  V30 32 C 11.252814 6.931976 -7.260559 0
M  V30 33 C 7.541595 4.896087 -9.733221 0
M  V30 34 C 11.883781 8.195636 -7.364647 0
M  V30 35 C 13.682983 7.927812 -19.206895 0
M  V30 36 C 7.156498 1.605097 -19.150040 0
M  V30 37 C 6.997869 2.125689 -16.110425 0
M  V30 38 C 8.190924 4.656631 -12.222645 0 CFG=2
M  V30 39 C 11.674347 8.985127 -8.517607 0
M  V30 40 O 8.575410 3.625763 -15.099536 0
M  V30 41 C 12.262279 2.210138 -18.061452 0
M  V30 42 C 9.026752 4.882304 -14.611602 0
M  V30 43 C 12.888199 6.202234 -17.617480 0 CFG=1
M  V30 44 H 8.665112 7.332907 -10.713970 0
M  V30 45 H 8.996894 5.143295 -7.505654 0
M  V30 46 H 10.359207 4.348204 -8.386220 0
M  V30 47 H 14.349040 4.782187 -16.935437 0
M  V30 48 H 14.969234 5.740348 -18.229604 0
M  V30 49 H 5.934757 7.505064 -18.065384 0
M  V30 50 H 10.914063 4.676015 -19.116627 0
M  V30 51 H 9.445149 3.080320 -19.370131 0
M  V30 52 H 6.604319 3.975497 -15.206244 0
M  V30 53 H 5.923040 4.249636 -11.558497 0
M  V30 54 H 4.490752 4.678073 -12.508163 0
M  V30 55 H 9.124937 3.498883 -10.633925 0
M  V30 56 H 8.978460 1.279310 -16.173810 0
M  V30 57 H 7.742249 0.240582 -16.794456 0
M  V30 58 H 14.965973 9.330431 -18.450462 0
M  V30 59 H 13.430207 9.436253 -17.862431 0
M  V30 60 H 10.076365 3.933110 -12.967104 0
M  V30 61 H 9.983351 5.667547 -12.844650 0
M  V30 62 H 10.645913 9.117845 -10.387931 0
M  V30 63 H 14.498332 3.339228 -18.884652 0
M  V30 64 H 13.554122 4.459964 -19.853616 0
M  V30 65 H 8.766594 5.059718 -20.188129 0
M  V30 66 H 11.778082 7.666215 -18.524725 0
M  V30 67 H 11.796570 5.017074 -16.201356 0
M  V30 68 H 10.764019 6.125810 -17.079504 0
M  V30 69 H 5.971923 5.922410 -16.163156 0
M  V30 70 H 9.071598 0.950020 -18.601885 0
M  V30 71 H 7.329169 7.075811 -20.074425 0
M  V30 72 H 11.400447 6.308321 -6.390473 0
M  V30 73 H 6.751717 5.588786 -10.001801 0
M  V30 74 H 7.290265 4.219935 -8.922548 0
M  V30 75 H 12.525514 8.556825 -6.575067 0
M  V30 76 H 14.493583 7.316110 -19.601109 0
M  V30 77 H 13.327178 8.557080 -20.024848 0
M  V30 78 H 6.414403 2.372201 -18.936019 0
M  V30 79 H 7.448615 1.716736 -20.193244 0
M  V30 80 H 6.662713 0.637798 -19.055465 0
M  V30 81 H 6.799916 1.683148 -15.132131 0
M  V30 82 H 6.065845 1.991881 -16.654610 0
M  V30 83 H 7.646824 3.782659 -12.585513 0
M  V30 84 H 12.159392 9.940056 -8.623679 0
M  V30 85 H 12.982425 1.407549 -18.114251 0
M  V30 86 H 9.906753 5.161304 -15.174303 0
M  V30 87 H 8.307671 5.685219 -14.778528 0
M  V30 88 H 13.168432 6.831279 -16.772001 0
M  V30 89 H 14.438171 8.229279 -17.336385 0
M  V30 END ATOM
M  V30 BEGIN BOND
M  V30 1 1 5 3
M  V30 2 1 6 1 CFG=3
M  V30 3 1 6 2
M  V30 4 1 10 3
M  V30 5 1 11 5
M  V30 6 1 13 6
M  V30 7 1 16 9
M  V30 8 1 16 12
M  V30 9 1 18 2
M  V30 10 1 19 8
M  V30 11 1 22 1
M  V30 12 1 22 18
M  V30 13 2 22 21
M  V30 14 1 23 8
M  V30 15 1 23 10
M  V30 16 1 23 17
M  V30 17 1 24 4
M  V30 18 1 24 19
M  V30 19 2 25 16
M  V30 20 2 26 3
M  V30 21 1 28 8
M  V30 22 2 29 5
M  V30 23 1 29 7
M  V30 24 1 30 10
M  V30 25 1 30 14
M  V30 26 2 31 7
M  V30 27 1 31 26
M  V30 28 2 32 18
M  V30 29 1 33 6
M  V30 30 1 33 13
M  V30 31 1 34 32
M  V30 32 1 35 15
M  V30 33 1 35 27
M  V30 34 1 36 30
M  V30 35 1 37 11
M  V30 36 1 37 14
M  V30 37 1 38 9
M  V30 38 1 38 13
M  V30 39 1 38 20
M  V30 40 1 39 21
M  V30 41 2 39 34
M  V30 42 1 40 11
M  V30 43 1 41 17
M  V30 44 2 41 19
M  V30 45 1 42 20
M  V30 46 1 42 40
M  V30 47 1 43 4
M  V30 48 1 43 27
M  V30 49 1 43 28
M  V30 50 1 44 1
M  V30 51 1 45 2
M  V30 52 1 46 2
M  V30 53 1 47 4
M  V30 54 1 48 4
M  V30 55 1 49 7
M  V30 56 1 8 50 CFG=3
M  V30 57 1 10 51 CFG=3
M  V30 58 1 11 52 CFG=1
M  V30 59 1 53 12
M  V30 60 1 54 12
M  V30 61 1 13 55 CFG=3
M  V30 62 1 56 14
M  V30 63 1 57 14
M  V30 64 1 58 15
M  V30 65 1 59 15
M  V30 66 1 60 20
M  V30 67 1 61 20
M  V30 68 1 62 21
M  V30 69 1 63 24
M  V30 70 1 64 24
M  V30 71 1 65 26
M  V30 72 1 66 27
M  V30 73 1 67 28
M  V30 74 1 68 28
M  V30 75 1 69 29
M  V30 76 1 30 70 CFG=3
M  V30 77 1 71 31
M  V30 78 1 72 32
M  V30 79 1 73 33
M  V30 80 1 74 33
M  V30 81 1 75 34
M  V30 82 1 76 35
M  V30 83 1 77 35
M  V30 84 1 78 36
M  V30 85 1 79 36
M  V30 86 1 80 36
M  V30 87 1 81 37
M  V30 88 1 82 37
M  V30 89 1 38 83 CFG=3
M  V30 90 1 84 39
M  V30 91 1 85 41
M  V30 92 1 86 42
M  V30 93 1 87 42
M  V30 94 1 43 88 CFG=1
M  V30 95 1 89 15
M  V30 END BOND
M  V30 END CTAB
M  END
>  <i_epik_Tot_Q>  (1) 
1

>  <i_epik_Tot_abs_Q>  (1) 
1

>  <i_i_glide_confnum>  (1) 
280

>  <i_i_glide_lignum>  (1) 
66

>  <i_i_glide_posenum>  (1) 
132

>  <i_i_glide_rotatable_bonds>  (1) 
10

>  <i_lp_mmshare_version>  (1) 
72125

>  <i_m_source_file_index>  (1) 
41

>  <i_f3d_flags>  (1) 
0

>  <num_sample>  (1) 
100

>  <b_lp_Chiralities_Consistent>  (1) 
1

>  <r_epik_Charging_Adjusted_Penalty>  (1) 
0.00021732795814705282

>  <r_epik_Ionization_Penalty>  (1) 
0.031196808922400864

>  <r_epik_Ionization_Penalty_Charging>  (1) 
0.00021732795814705282

>  <r_epik_Ionization_Penalty_Neutral>  (1) 
0.030979480964253809

>  <r_epik_State_Penalty>  (1) 
-0

>  <r_glide_ring_energy>  (1) 
0

>  <r_i_docking_score>  (1) 
-2.7850652859180234

>  <r_i_glide_ecoul>  (1) 
-6.0340719972939096

>  <r_i_glide_eff_state_penalty>  (1) 
-0

>  <r_i_glide_einternal>  (1) 
14.766240454237357

>  <r_i_glide_emodel>  (1) 
-34.351026750765158

>  <r_i_glide_emodel_strain>  (1) 
2.7505831661982256

>  <r_i_glide_energy>  (1) 
-37.559875797533884

>  <r_i_glide_erotb>  (1) 
0.31563021086283022

>  <r_i_glide_esite>  (1) 
-0.15493199131473126

>  <r_i_glide_evdw>  (1) 
-31.525803800239974

>  <r_i_glide_gscore>  (1) 
-2.7850652859180234

>  <r_i_glide_gscore_strain>  (1) 
0

>  <r_i_glide_hbond>  (1) 
-0.028202986760237306

>  <r_i_glide_ligand_efficiency>  (1) 
-0.064768960137628451

>  <r_i_glide_ligand_efficiency_ln>  (1) 
-0.58495026847077281

>  <r_i_glide_ligand_efficiency_sa>  (1) 
-0.22691144931943261

>  <r_i_glide_lipo>  (1) 
-2.0816377335866898

>  <r_i_glide_metal>  (1) 
-0

>  <r_i_glide_rewards>  (1) 
1.645478204486891

>  <r_lp_Energy>  (1) 
52.272574999999996

>  <r_lp_tautomer_probability>  (1) 
1

>  <s_epik_Chemistry_Notes>  (1) 
This compound has an ester and may undergo hydrolysis at high or low pH. This compound contains an acetal/aminal-like group ( X-CH(R)-Y where X, Y are N, S, or O) that may be acid/base labile, releasing an aldehyde. This compound has a N-S or N-O group and may undergo hydrolysis at high or low pH.

>  <s_epik_cmdline>  (1) 
J2VwaWtfcHl0aG9uJywgJy1waHQnLCAnMS4wJywgJy1waCcsICc3LjQnLCAnLXRuJywgJzgnLCAnLW1hJywgJzUwMCcsICctaW1hZScsICc8aW5maWxlLm1hZT4nLCAnLW9tYWUnLCAnPG91dGZpbGUubWFlPic=

>  <s_epik_input>  (1) 
W2NIXTFbY0hdW2NIXVtjSF1jKFtDSDJdMiljMVtOSF1bQ0BAXTIzW0NAQEhdKFtDSDJdMylbQ0BASF0oT0MoPU8pW05IMl0pW0NIMl1bQ0gyXU9bQ0BASF0oYyhjNDUpW2NIXVtjSF1bY0hdW2NIXTUpW0NIMl1bQ0gyXVtDQEBIXShbQ0gzXSlbQ0BASF00TjZPW0NIXT1DKFtDQEBIXTY3KVtDSDJdW0NIMl1bQ0BIXShbQ0gyXTcpW05IXVtDSDJdW05IMl0=

>  <s_glide_docking_method>  (1) 
confgen

>  <s_i_glide_gridfile>  (1) 
gpcr_drd2_6luq_protein_autoprepared_prepared

>  <s_lp_Force_Field>  (1) 
S-OPLS

>  <s_lp_Variant>  (1) 
DiffSBDD_40-1

>  <s_m_source_file>  (1) 
generated_generic_title2_ligand_DiffSBDD_2026-06-23_prepared.sdf

>  <GenAI_Model>  (1) 
DiffSBDD

>  <Protein>  (1) 
generic_title2

$$$$
DiffSBDD_80
     RDKit          3D

  0  0  0  0  0  0  0  0  0  0999 V3000
M  V30 BEGIN CTAB
M  V30 COUNTS 81 87 0 0 1
M  V30 BEGIN ATOM
M  V30 1 C 9.884711 6.966978 -10.985038 0
M  V30 2 C 9.851071 2.291968 -19.754396 0
M  V30 3 C 7.940751 5.991683 -14.670072 0
M  V30 4 O 10.370122 4.353711 -20.890399 0
M  V30 5 N 10.564181 8.974083 -5.995552 0 CHG=1
M  V30 6 C 5.438505 6.742301 -15.604498 0
M  V30 7 C 7.098529 6.753695 -13.833677 0
M  V30 8 C 10.094569 3.800484 -19.828865 0
M  V30 9 C 7.386844 8.502890 -12.039399 0
M  V30 10 C 11.639390 7.925357 -8.427502 0 CFG=2
M  V30 11 C 11.998561 9.219183 -6.165967 0 CFG=2
M  V30 12 C 8.693338 4.221338 -17.758102 0 CFG=2
M  V30 13 C 9.885749 6.097851 -8.553716 0 CFG=2
M  V30 14 O 9.375406 4.651502 -10.249478 0
M  V30 15 C 8.550861 2.692601 -17.589007 0
M  V30 16 C 9.984284 4.587130 -18.521627 0
M  V30 17 N 9.175420 5.540095 -14.476238 0
M  V30 18 O 7.775417 5.190226 -7.589220 0
M  V30 19 C 10.137387 7.625363 -6.414904 0
M  V30 20 C 5.829749 7.124982 -14.304995 0
M  V30 21 O 9.375402 8.488941 -8.422687 0
M  V30 22 C 9.262706 6.926152 -12.383320 0 CFG=2
M  V30 23 C 10.016547 4.476627 -12.487223 0
M  V30 24 C 7.726495 7.075176 -12.471273 0 CFG=2
M  V30 25 C 6.313848 5.979706 -16.412721 0
M  V30 26 O 12.035686 10.600305 -5.985064 0
M  V30 27 C 8.625089 4.902706 -16.404533 0
M  V30 28 C 10.249590 7.495742 -7.954555 0 CFG=1
M  V30 29 C 7.570978 5.629264 -15.856761 0
M  V30 30 N 9.712505 4.790219 -15.592941 0
M  V30 31 C 11.363433 6.390227 -13.559751 0
M  V30 32 C 8.586034 1.963968 -18.941980 0
M  V30 33 C 12.506564 8.798831 -7.536914 0 CFG=2
M  V30 34 C 9.235384 6.031676 -9.953993 0 CFG=2
M  V30 35 C 9.916226 5.827095 -13.237539 0 CFG=1
M  V30 36 C 5.895777 5.590193 -17.818359 0
M  V30 37 O 11.775434 9.331234 -8.636050 0
M  V30 38 C 9.171385 5.114125 -7.630765 0
M  V30 39 C 8.943404 4.140329 -11.481173 0
M  V30 40 H 9.828220 8.002497 -10.673902 0
M  V30 41 H 10.955500 6.790192 -11.024789 0
M  V30 42 H 9.769080 1.883602 -20.761608 0
M  V30 43 H 10.004205 5.655585 -18.737676 0
M  V30 44 H 10.722670 1.829995 -19.290770 0
M  V30 45 H 10.085202 9.611443 -6.618685 0
M  V30 46 H 4.472605 7.034306 -15.985107 0
M  V30 47 H 6.319296 8.636692 -11.879683 0
M  V30 48 H 7.879535 8.805142 -11.127476 0
M  V30 49 H 7.775415 9.190302 -12.789973 0
M  V30 50 H 12.127320 7.336943 -9.199738 0
M  V30 51 H 12.575285 8.790220 -5.353216 0
M  V30 52 H 7.931561 4.537674 -18.445737 0
M  V30 53 H 10.855766 5.615929 -8.657136 0
M  V30 54 H 9.350400 2.312413 -16.950743 0
M  V30 55 H 7.616657 2.461561 -17.075247 0
M  V30 56 H 10.866469 4.364048 -17.920836 0
M  V30 57 H 7.476033 6.098193 -7.526576 0
M  V30 58 H 9.103345 7.482401 -6.095725 0
M  V30 59 H 10.750013 6.888300 -5.895350 0
M  V30 60 H 5.162835 7.703137 -13.683896 0
M  V30 61 H 8.530192 8.113576 -8.692395 0
M  V30 62 H 9.595577 7.878715 -12.785030 0
M  V30 63 H 10.972542 4.392750 -11.985024 0
M  V30 64 H 10.016790 3.650252 -13.185028 0
M  V30 65 H 7.224480 6.410194 -11.774717 0
M  V30 66 H 12.941844 10.874475 -5.985171 0
M  V30 67 H 12.079352 6.115356 -12.785093 0
M  V30 68 H 11.748712 6.020980 -14.510091 0
M  V30 69 H 11.446044 7.472709 -13.585028 0
M  V30 70 H 7.700286 2.229424 -19.520423 0
M  V30 71 H 8.528116 0.887630 -18.776568 0
M  V30 72 H 13.582368 8.809213 -7.693755 0
M  V30 73 H 8.175458 6.246434 -9.878417 0
M  V30 74 H 4.868622 5.906382 -18.002896 0
M  V30 75 H 6.506713 6.107706 -18.557651 0
M  V30 76 H 5.912672 4.515779 -17.985013 0
M  V30 77 H 9.581103 5.190340 -6.643722 0
M  V30 78 H 9.375411 4.102356 -7.985003 0
M  V30 79 H 8.975435 3.059756 -11.371226 0
M  V30 80 H 7.927577 4.400636 -11.766573 0
M  V30 81 H 10.299163 9.164954 -5.042676 0
M  V30 END ATOM
M  V30 BEGIN BOND
M  V30 1 2 7 3
M  V30 2 1 8 2
M  V30 3 2 8 4
M  V30 4 1 11 5
M  V30 5 1 15 12
M  V30 6 1 16 8
M  V30 7 1 16 12
M  V30 8 1 17 3
M  V30 9 1 19 5
M  V30 10 2 20 6
M  V30 11 1 20 7
M  V30 12 1 22 1
M  V30 13 1 24 7
M  V30 14 1 24 9
M  V30 15 1 24 22
M  V30 16 1 25 6
M  V30 17 1 26 11
M  V30 18 1 27 12
M  V30 19 1 28 10
M  V30 20 1 28 13
M  V30 21 1 28 19
M  V30 22 1 28 21 CFG=3
M  V30 23 1 29 3
M  V30 24 2 29 25
M  V30 25 1 29 27
M  V30 26 1 30 17
M  V30 27 2 30 27
M  V30 28 1 32 2
M  V30 29 1 32 15
M  V30 30 1 33 10
M  V30 31 1 33 11
M  V30 32 1 34 1
M  V30 33 1 34 13
M  V30 34 1 34 14
M  V30 35 1 35 17
M  V30 36 1 35 22
M  V30 37 1 35 23
M  V30 38 1 35 31 CFG=3
M  V30 39 1 36 25
M  V30 40 1 37 10
M  V30 41 1 37 33
M  V30 42 1 38 13
M  V30 43 1 38 18
M  V30 44 1 39 14
M  V30 45 1 39 23
M  V30 46 1 40 1
M  V30 47 1 41 1
M  V30 48 1 42 2
M  V30 49 1 43 16
M  V30 50 1 44 2
M  V30 51 1 45 5
M  V30 52 1 46 6
M  V30 53 1 47 9
M  V30 54 1 48 9
M  V30 55 1 49 9
M  V30 56 1 10 50 CFG=3
M  V30 57 1 11 51 CFG=1
M  V30 58 1 12 52 CFG=3
M  V30 59 1 13 53 CFG=3
M  V30 60 1 54 15
M  V30 61 1 55 15
M  V30 62 1 56 16
M  V30 63 1 57 18
M  V30 64 1 58 19
M  V30 65 1 59 19
M  V30 66 1 60 20
M  V30 67 1 61 21
M  V30 68 1 22 62 CFG=3
M  V30 69 1 63 23
M  V30 70 1 64 23
M  V30 71 1 24 65 CFG=1
M  V30 72 1 66 26
M  V30 73 1 67 31
M  V30 74 1 68 31
M  V30 75 1 69 31
M  V30 76 1 70 32
M  V30 77 1 71 32
M  V30 78 1 33 72 CFG=3
M  V30 79 1 34 73 CFG=1
M  V30 80 1 74 36
M  V30 81 1 75 36
M  V30 82 1 76 36
M  V30 83 1 77 38
M  V30 84 1 78 38
M  V30 85 1 79 39
M  V30 86 1 80 39
M  V30 87 1 81 5
M  V30 END BOND
M  V30 END CTAB
M  END
>  <i_epik_Tot_Q>  (1) 
1

>  <i_epik_Tot_abs_Q>  (1) 
1

>  <i_i_glide_confnum>  (1) 
226

>  <i_i_glide_lignum>  (1) 
141

>  <i_i_glide_posenum>  (1) 
252

>  <i_i_glide_rotatable_bonds>  (1) 
7

>  <i_lp_mmshare_version>  (1) 
72125

>  <i_m_source_file_index>  (1) 
81

>  <i_f3d_flags>  (1) 
0

>  <num_sample>  (1) 
100

>  <b_lp_Chiralities_Consistent>  (1) 
1

>  <r_epik_Charging_Adjusted_Penalty>  (1) 
1.2255087210735522

>  <r_epik_Ionization_Penalty>  (1) 
1.2155625160302366

>  <r_epik_Ionization_Penalty_Charging>  (1) 
0.066233371384416553

>  <r_epik_Ionization_Penalty_Neutral>  (1) 
1.14932914464582

>  <r_epik_State_Penalty>  (1) 
1.1592753496891357

>  <r_glide_ring_energy>  (1) 
0

>  <r_i_docking_score>  (1) 
-2.7840207047677978

>  <r_i_glide_ecoul>  (1) 
-4.7248344347931202

>  <r_i_glide_eff_state_penalty>  (1) 
1.1592753496891357

>  <r_i_glide_einternal>  (1) 
19.731413683139117

>  <r_i_glide_emodel>  (1) 
-25.088043460773481

>  <r_i_glide_emodel_strain>  (1) 
3.7564799839208263

>  <r_i_glide_energy>  (1) 
-10.560475023875219

>  <r_i_glide_erotb>  (1) 
0.2829020549976658

>  <r_i_glide_esite>  (1) 
-0.00040856500275290625

>  <r_i_glide_evdw>  (1) 
-5.8356405890820984

>  <r_i_glide_gscore>  (1) 
-3.9432960544569333

>  <r_i_glide_gscore_strain>  (1) 
0

>  <r_i_glide_hbond>  (1) 
-0.32547602655990676

>  <r_i_glide_ligand_efficiency>  (1) 
-0.071385146276097378

>  <r_i_glide_ligand_efficiency_ln>  (1) 
-0.5969730682295783

>  <r_i_glide_ligand_efficiency_sa>  (1) 
-0.24208212491274159

>  <r_i_glide_lipo>  (1) 
-1.918712010406991

>  <r_i_glide_metal>  (1) 
-0

>  <r_i_glide_rewards>  (1) 
-0.98109431281187565

>  <r_lp_Energy>  (1) 
36.773640999999998

>  <r_lp_tautomer_probability>  (1) 
0.99999997999999979

>  <s_epik_Chemistry_Notes>  (1) 
This compound contains an acetal/aminal-like group ( X-CH(R)-Y where X, Y are N, S, or O) that may be acid/base labile, releasing an aldehyde.

>  <s_epik_cmdline>  (1) 
J2VwaWtfcHl0aG9uJywgJy1waHQnLCAnMS4wJywgJy1waCcsICc3LjQnLCAnLXRuJywgJzgnLCAnLW1hJywgJzUwMCcsICctaW1hZScsICc8aW5maWxlLm1hZT4nLCAnLW9tYWUnLCAnPG91dGZpbGUubWFlPic=

>  <s_epik_input>  (1) 
W0NASF0xMltDQEBIXShPMilbQ0BASF0oW09IXSlbTkhdW0NIMl1bQ0BdMShbT0hdKVtDQEBIXShbQ0gyXVtPSF0pW0NASF0oT1tDSDJdW0NIMl0zKVtDSDJdW0NAQEhdNFtDQEBIXShbQ0gzXSljKGM1bjZbQ0BdMzRbQ0gzXSlbY0hdW2NIXWMoW0NIM10pYzVjKG42KVtDQEhdKFtDSDJdW0NIMl1bQ0gyXTcpW0NIXT1DN1tPSF0=

>  <s_glide_docking_method>  (1) 
confgen

>  <s_i_glide_gridfile>  (1) 
gpcr_drd2_6luq_protein_autoprepared_prepared

>  <s_lp_Force_Field>  (1) 
S-OPLS

>  <s_lp_Variant>  (1) 
DiffSBDD_80-3

>  <s_m_source_file>  (1) 
generated_generic_title2_ligand_DiffSBDD_2026-06-23_prepared.sdf

>  <GenAI_Model>  (1) 
DiffSBDD

>  <Protein>  (1) 
generic_title2

$$$$
DiffSBDD_90
     RDKit          3D

  0  0  0  0  0  0  0  0  0  0999 V3000
M  V30 BEGIN CTAB
M  V30 COUNTS 80 84 0 0 1
M  V30 BEGIN ATOM
M  V30 1 C 9.280704 5.703668 -18.573699 0
M  V30 2 C 9.527965 4.790240 -17.357190 0 CFG=1
M  V30 3 C 7.944959 5.065566 -14.086571 0
M  V30 4 C 13.502971 3.953538 -17.229945 0 CFG=2
M  V30 5 C 7.254391 5.343020 -16.141869 0
M  V30 6 C 7.838466 5.047268 -12.647688 0 CFG=2
M  V30 7 C 11.451535 2.808569 -19.795370 0 CFG=2
M  V30 8 O 11.382313 5.830259 -19.752738 0
M  V30 9 C 10.188959 5.086195 -19.658597 0 CFG=1
M  V30 10 C 12.740058 6.165052 -16.140401 0
M  V30 11 O 17.455790 6.205228 -17.362909 0
M  V30 12 C 8.588724 4.979242 -16.206599 0
M  V30 13 C 8.540900 2.466813 -18.238494 0 CFG=2
M  V30 14 O 16.575407 4.390189 -16.385628 0 CHG=-1
M  V30 15 O 14.449176 2.942866 -16.948797 0
M  V30 16 C 12.979800 2.948190 -19.463862 0 CFG=2
M  V30 17 N 13.329933 4.139127 -18.676978 0
M  V30 18 N 10.541225 3.768901 -19.144410 0
M  V30 19 C 15.559945 7.745758 -18.812511 0
M  V30 20 C 13.839468 2.966477 -20.743640 0
M  V30 21 O 7.425214 2.513618 -17.374027 0
M  V30 22 O 13.748774 1.750716 -21.459850 0
M  V30 23 O 10.292518 -0.276307 -17.906240 0
M  V30 24 C 9.761810 2.024081 -17.454558 0 CFG=1
M  V30 25 C 16.504849 5.500226 -16.961867 0
M  V30 26 C 11.013510 1.342843 -19.555312 0
M  V30 27 N 6.941267 5.372252 -14.811831 0
M  V30 28 O 16.261330 7.184104 -19.655960 0
M  V30 29 C 6.295659 5.499677 -12.646051 0
M  V30 30 N 8.975411 4.813244 -14.888905 0 CHG=1
M  V30 31 C 13.939018 5.260580 -16.490371 0 CFG=2
M  V30 32 O 9.265409 4.886281 -10.140640 0
M  V30 33 O 8.680035 6.012265 -12.041521 0
M  V30 34 C 8.610478 5.990664 -10.655920 0
M  V30 35 C 15.483017 9.268865 -18.767346 0
M  V30 36 C 15.069814 6.061257 -17.180131 0
M  V30 37 C 10.758526 1.049246 -18.060930 0 CFG=2
M  V30 38 C 9.229254 4.862856 -8.725848 0
M  V30 39 N 14.776353 7.130860 -17.849967 0
M  V30 40 C 5.730627 5.681116 -14.133880 0
M  V30 41 C 9.702272 3.429720 -18.014336 0 CFG=1
M  V30 42 H 8.239888 5.623420 -18.890388 0
M  V30 43 H 9.487639 6.756846 -18.385013 0
M  V30 44 H 10.507913 5.045021 -16.970317 0
M  V30 45 H 12.562530 3.606655 -16.800768 0
M  V30 46 H 6.538380 5.576170 -16.916725 0
M  V30 47 H 8.002019 4.022664 -12.309575 0
M  V30 48 H 11.348505 2.977966 -20.867433 0
M  V30 49 H 11.377529 6.315606 -20.565388 0
M  V30 50 H 9.692673 5.021384 -20.627720 0
M  V30 51 H 13.058981 7.041325 -15.574735 0
M  V30 52 H 12.228927 6.522206 -17.035019 0
M  V30 53 H 12.022035 5.635764 -15.517905 0
M  V30 54 H 8.327694 2.056818 -19.222183 0
M  V30 55 H 15.268106 3.376384 -16.691828 0
M  V30 56 H 13.297839 2.062862 -18.913353 0
M  V30 57 H 12.613589 4.850424 -18.854482 0
M  V30 58 H 14.887720 3.116801 -20.481713 0
M  V30 59 H 13.554020 3.795566 -21.392766 0
M  V30 60 H 7.114355 1.630760 -17.233340 0
M  V30 61 H 12.875943 1.663396 -21.809342 0
M  V30 62 H 9.482539 -0.379146 -18.382354 0
M  V30 63 H 9.624881 1.910346 -16.385031 0
M  V30 64 H 10.116380 1.138216 -20.138303 0
M  V30 65 H 11.761262 0.649270 -19.942552 0
M  V30 66 H 5.694743 4.773607 -12.097541 0
M  V30 67 H 6.180004 6.446048 -12.114886 0
M  V30 68 H 14.310887 4.960716 -15.508432 0
M  V30 69 H 9.086997 6.900108 -10.287223 0
M  V30 70 H 7.573121 5.990219 -10.319531 0
M  V30 71 H 14.444470 9.601601 -18.789916 0
M  V30 72 H 15.944400 9.640236 -17.852198 0
M  V30 73 H 16.001726 9.710405 -19.618410 0
M  V30 74 H 11.693692 1.140791 -17.506995 0
M  V30 75 H 9.776014 3.990220 -8.385140 0
M  V30 76 H 9.702982 5.745924 -8.294225 0
M  V30 77 H 8.207552 4.790098 -8.349625 0
M  V30 78 H 5.416334 6.697405 -14.370354 0
M  V30 79 H 4.975450 4.943285 -14.385020 0
M  V30 80 H 9.904401 4.551877 -14.575150 0
M  V30 END ATOM
M  V30 BEGIN BOND
M  V30 1 1 2 1
M  V30 2 1 6 3
M  V30 3 1 9 1
M  V30 4 1 9 8
M  V30 5 1 12 2
M  V30 6 2 12 5
M  V30 7 1 15 4
M  V30 8 1 16 7
M  V30 9 1 17 4
M  V30 10 1 17 16
M  V30 11 1 18 7
M  V30 12 1 18 9
M  V30 13 1 20 16
M  V30 14 1 21 13
M  V30 15 1 22 20
M  V30 16 1 24 13
M  V30 17 2 25 11
M  V30 18 1 25 14
M  V30 19 1 26 7
M  V30 20 1 27 3
M  V30 21 1 27 5
M  V30 22 2 28 19
M  V30 23 1 29 6
M  V30 24 2 30 3
M  V30 25 1 30 12
M  V30 26 1 31 4
M  V30 27 1 31 10
M  V30 28 1 33 6
M  V30 29 1 34 32
M  V30 30 1 34 33
M  V30 31 1 35 19
M  V30 32 1 36 25
M  V30 33 1 36 31
M  V30 34 1 37 23
M  V30 35 1 37 24
M  V30 36 1 37 26
M  V30 37 1 38 32
M  V30 38 1 39 19
M  V30 39 2 39 36
M  V30 40 1 40 27
M  V30 41 1 40 29
M  V30 42 1 41 2
M  V30 43 1 41 13
M  V30 44 1 41 18 CFG=3
M  V30 45 1 41 24
M  V30 46 1 42 1
M  V30 47 1 43 1
M  V30 48 1 2 44 CFG=1
M  V30 49 1 4 45 CFG=1
M  V30 50 1 46 5
M  V30 51 1 6 47 CFG=1
M  V30 52 1 7 48 CFG=3
M  V30 53 1 49 8
M  V30 54 1 9 50 CFG=3
M  V30 55 1 51 10
M  V30 56 1 52 10
M  V30 57 1 53 10
M  V30 58 1 13 54 CFG=3
M  V30 59 1 55 15
M  V30 60 1 16 56 CFG=1
M  V30 61 1 57 17
M  V30 62 1 58 20
M  V30 63 1 59 20
M  V30 64 1 60 21
M  V30 65 1 61 22
M  V30 66 1 62 23
M  V30 67 1 24 63 CFG=1
M  V30 68 1 64 26
M  V30 69 1 65 26
M  V30 70 1 66 29
M  V30 71 1 67 29
M  V30 72 1 31 68 CFG=1
M  V30 73 1 69 34
M  V30 74 1 70 34
M  V30 75 1 71 35
M  V30 76 1 72 35
M  V30 77 1 73 35
M  V30 78 1 37 74 CFG=1
M  V30 79 1 75 38
M  V30 80 1 76 38
M  V30 81 1 77 38
M  V30 82 1 78 40
M  V30 83 1 79 40
M  V30 84 1 80 30
M  V30 END BOND
M  V30 END CTAB
M  END
>  <i_epik_Tot_Q>  (1) 
0

>  <i_epik_Tot_abs_Q>  (1) 
2

>  <i_i_glide_confnum>  (1) 
2952

>  <i_i_glide_lignum>  (1) 
173

>  <i_i_glide_posenum>  (1) 
387

>  <i_i_glide_rotatable_bonds>  (1) 
17

>  <i_lp_mmshare_version>  (1) 
72125

>  <i_m_source_file_index>  (1) 
91

>  <i_f3d_flags>  (1) 
0

>  <num_sample>  (1) 
100

>  <b_lp_Chiralities_Consistent>  (1) 
1

>  <r_epik_Charging_Adjusted_Penalty>  (1) 
1.2730775069092737

>  <r_epik_Ionization_Penalty>  (1) 
0.33079184029548347

>  <r_epik_Ionization_Penalty_Charging>  (1) 
4.3976256739559524e-06

>  <r_epik_Ionization_Penalty_Neutral>  (1) 
0.33078744266980953

>  <r_epik_State_Penalty>  (1) 
1.2730731092835996

>  <r_glide_ring_energy>  (1) 
0

>  <r_i_docking_score>  (1) 
-2.7643528714764503

>  <r_i_glide_ecoul>  (1) 
-6.6952063814529206

>  <r_i_glide_eff_state_penalty>  (1) 
1.2730731092835996

>  <r_i_glide_einternal>  (1) 
10.454791018409331

>  <r_i_glide_emodel>  (1) 
-40.579449022866655

>  <r_i_glide_emodel_strain>  (1) 
4.4547776590053445

>  <r_i_glide_energy>  (1) 
-40.280385568632127

>  <r_i_glide_erotb>  (1) 
0.57888693115673628

>  <r_i_glide_esite>  (1) 
-0.080988692553862096

>  <r_i_glide_evdw>  (1) 
-33.585179187179207

>  <r_i_glide_gscore>  (1) 
-4.0374259807600499

>  <r_i_glide_gscore_strain>  (1) 
0.11369441475133613

>  <r_i_glide_hbond>  (1) 
-0.16

>  <r_i_glide_ligand_efficiency>  (1) 
-0.067423240767718301

>  <r_i_glide_ligand_efficiency_ln>  (1) 
-0.58646666102832368

>  <r_i_glide_ligand_efficiency_sa>  (1) 
-0.23248998121772202

>  <r_i_glide_lipo>  (1) 
-1.2136473831840673

>  <r_i_glide_metal>  (1) 
-0

>  <r_i_glide_rewards>  (1) 
-0.59183133435329438

>  <r_lp_Energy>  (1) 
68.250592999999995

>  <s_epik_Chemistry_Notes>  (1) 
This compound has an imine and may undergo hydrolysis. This compound contains an acetal/aminal-like group ( X-CH(R)-Y where X, Y are N, S, or O) that may be acid/base labile, releasing an aldehyde.

>  <s_epik_cmdline>  (1) 
J2VwaWtfcHl0aG9uJywgJy1waHQnLCAnMS4wJywgJy1waCcsICc3LjQnLCAnLXRuJywgJzgnLCAnLW1hJywgJzUwMCcsICctaW1hZScsICc8aW5maWxlLm1hZT4nLCAnLW9tYWUnLCAnPG91dGZpbGUubWFlPic=

>  <s_epik_input>  (1) 
W0NIM11PW0NIMl1PW0NASF0xW0NIMl1bQ0gyXW4oYzEyKVtjSF1jKG4yKVtDQEBIXTNbQ0gyXVtDQEBIXShbT0hdKU4oW0NAQF0zNDUpW0NASF0oW0NIMl1bQ0BIXShbT0hdKVtDQEBIXTVbQ0BIXTRbT0hdKVtDQEBIXShbQ0gyXVtPSF0pW05IXVtDQEBIXShbT0hdKVtDQEhdKFtDSDNdKUMoXEMoPU8pW09IXSk9TlxDKD1PKVtDSDNd

>  <s_glide_docking_method>  (1) 
confgen

>  <s_i_glide_gridfile>  (1) 
gpcr_drd2_6luq_protein_autoprepared_prepared

>  <s_lp_Force_Field>  (1) 
S-OPLS

>  <s_lp_Variant>  (1) 
DiffSBDD_90-8

>  <s_m_source_file>  (1) 
generated_generic_title2_ligand_DiffSBDD_2026-06-23_prepared.sdf

>  <GenAI_Model>  (1) 
DiffSBDD

>  <Protein>  (1) 
generic_title2

$$$$
DiffSBDD_31
     RDKit          3D

  0  0  0  0  0  0  0  0  0  0999 V3000
M  V30 BEGIN CTAB
M  V30 COUNTS 103 109 0 0 1
M  V30 BEGIN ATOM
M  V30 1 C 7.809671 1.806637 -12.795053 0
M  V30 2 C 5.509742 7.176429 -14.470918 0
M  V30 3 C 10.088942 5.773373 -21.008926 0 CFG=2
M  V30 4 C 5.525739 3.779120 -13.493509 0
M  V30 5 O 6.986492 6.250944 -16.123065 0
M  V30 6 C 10.743346 -0.104691 -18.499395 0
M  V30 7 C 8.243523 3.244560 -12.386718 0
M  V30 8 C 5.233785 4.093878 -19.676747 0
M  V30 9 C 6.734256 1.673826 -13.883363 0 CFG=1
M  V30 10 C 7.234873 4.070828 -11.575106 0 CFG=2
M  V30 11 C 10.073939 -1.153817 -17.574222 0 CFG=1
M  V30 12 C 5.868682 4.334394 -12.145872 0 CFG=1
M  V30 13 C 6.679280 7.476492 -13.515357 0
M  V30 14 C 8.893135 6.907197 -12.367958 0 CFG=1
M  V30 15 C 10.781041 1.388043 -18.116100 0
M  V30 16 C 6.804905 5.493693 -11.916630 0 CFG=2
M  V30 17 C 5.380261 8.085397 -18.102083 0
M  V30 18 C 9.210004 -1.066129 -16.321559 0 CFG=2
M  V30 19 C 4.576183 5.887981 -17.868949 0
M  V30 20 C 4.816577 4.823484 -20.974045 0
M  V30 21 C 10.291392 5.679932 -19.489031 0
M  V30 22 O 8.679881 4.854511 -17.931951 0
M  V30 23 O 5.560812 2.349831 -13.477911 0
M  V30 24 N 8.015150 -0.197145 -16.178993 0 CFG=2 CHG=1
M  V30 25 C 7.554497 6.334588 -12.953325 0 CFG=1
M  V30 26 C 8.905139 5.324719 -19.046246 0
M  V30 27 C 4.931245 7.103224 -17.040095 0 CFG=1
M  V30 28 C 7.509300 -0.515921 -17.490546 0
M  V30 29 C 5.422358 6.227879 -20.854637 0
M  V30 30 C 5.694443 5.205510 -18.706961 0 CFG=2
M  V30 31 C 8.301149 1.211074 -15.859618 0
M  V30 32 C 7.803713 5.547106 -20.088257 0 CFG=1
M  V30 33 C 8.863836 8.383722 -11.898948 0
M  V30 34 C 7.132677 2.016652 -15.327126 0
M  V30 35 C 8.619316 -1.522998 -17.629067 0 CFG=1
M  V30 36 O 8.523850 7.594190 -21.251748 0
M  V30 37 C 6.525042 7.584692 -19.059337 0
M  V30 38 O 9.359501 6.173517 -11.254911 0
M  V30 39 C 6.408373 6.177934 -19.666496 0 CFG=1
M  V30 40 C 5.918716 6.795583 -15.898460 0
M  V30 41 C 11.116695 6.669246 -21.717144 0
M  V30 42 C 10.334675 -0.277175 -19.977132 0
M  V30 43 C 8.607559 6.183194 -21.243791 0 CFG=1
M  V30 44 H 7.469398 1.182488 -11.985400 0
M  V30 45 H 8.713978 1.278976 -13.073579 0
M  V30 46 H 4.861872 8.055066 -14.525191 0
M  V30 47 H 4.941217 6.367310 -14.027112 0
M  V30 48 H 10.220050 4.764338 -21.406060 0
M  V30 49 H 4.513512 4.116347 -13.694101 0
M  V30 50 H 6.147335 4.223214 -14.260146 0
M  V30 51 H 11.799355 -0.381229 -18.470774 0
M  V30 52 H 9.149689 3.180208 -11.777381 0
M  V30 53 H 8.530763 3.793772 -13.276482 0
M  V30 54 H 4.579411 3.344265 -19.251467 0
M  V30 55 H 6.089325 3.471758 -19.931991 0
M  V30 56 H 6.456214 0.620220 -13.872523 0
M  V30 57 H 7.338415 3.980114 -10.494836 0
M  V30 58 H 10.743348 -1.985406 -17.430300 0
M  V30 59 H 5.045852 4.261437 -11.442236 0
M  V30 60 H 7.320106 8.193514 -14.030202 0
M  V30 61 H 6.255204 7.964846 -12.634109 0
M  V30 62 H 9.643466 6.769606 -13.144985 0
M  V30 63 H 9.869867 1.905066 -18.406778 0
M  V30 64 H 10.991306 1.582935 -17.068260 0
M  V30 65 H 11.581821 1.890989 -18.660543 0
M  V30 66 H 6.507962 6.103244 -11.066934 0
M  V30 67 H 4.534399 8.389880 -18.714798 0
M  V30 68 H 5.717525 8.952966 -17.530868 0
M  V30 69 H 9.374911 -1.785582 -15.524438 0
M  V30 70 H 3.747156 6.182130 -18.508576 0
M  V30 71 H 4.181767 5.190228 -17.167187 0
M  V30 72 H 3.739011 4.897239 -21.096958 0
M  V30 73 H 5.206222 4.324458 -21.860853 0
M  V30 74 H 11.010704 4.916687 -19.202273 0
M  V30 75 H 10.571414 6.631712 -19.043583 0
M  V30 76 H 7.816260 5.699443 -13.793957 0
M  V30 77 H 4.035184 7.510472 -16.566079 0
M  V30 78 H 6.496784 -0.923138 -17.441687 0
M  V30 79 H 7.557148 0.331704 -18.174284 0
M  V30 80 H 4.612865 6.933653 -20.648073 0
M  V30 81 H 5.892905 6.594291 -21.766864 0
M  V30 82 H 6.346523 4.747087 -17.977754 0
M  V30 83 H 8.728078 1.740265 -16.693907 0
M  V30 84 H 9.020555 1.192963 -15.071772 0
M  V30 85 H 7.623419 4.542376 -20.447428 0
M  V30 86 H 8.727890 9.081590 -12.720037 0
M  V30 87 H 8.035204 8.580608 -11.215707 0
M  V30 88 H 9.788177 8.667600 -11.393657 0
M  V30 89 H 6.282722 1.882300 -15.985283 0
M  V30 90 H 7.424448 3.062269 -15.382916 0
M  V30 91 H 8.330038 -2.569649 -17.695588 0
M  V30 92 H 8.998936 7.913214 -22.003757 0
M  V30 93 H 7.482431 7.590227 -18.532881 0
M  V30 94 H 6.607487 8.308760 -19.876239 0
M  V30 95 H 8.728523 6.309477 -10.559756 0
M  V30 96 H 11.141768 7.675181 -21.292530 0
M  V30 97 H 12.122126 6.256818 -21.630378 0
M  V30 98 H 10.878597 6.760155 -22.779025 0
M  V30 99 H 9.280164 -0.059077 -20.155012 0
M  V30 100 H 10.915063 0.380246 -20.627471 0
M  V30 101 H 10.518285 -1.286416 -20.334225 0
M  V30 102 H 8.249222 5.796157 -22.199770 0
M  V30 103 H 7.415506 -0.624884 -15.484640 0
M  V30 END ATOM
M  V30 BEGIN BOND
M  V30 1 1 7 1
M  V30 2 1 9 1
M  V30 3 1 10 7
M  V30 4 1 11 6
M  V30 5 1 12 4
M  V30 6 1 12 10
M  V30 7 1 13 2
M  V30 8 1 15 6
M  V30 9 1 16 10
M  V30 10 1 16 12
M  V30 11 1 18 11
M  V30 12 1 20 8
M  V30 13 1 21 3
M  V30 14 1 23 4
M  V30 15 1 23 9
M  V30 16 1 24 18
M  V30 17 1 25 13
M  V30 18 1 25 14
M  V30 19 1 25 16
M  V30 20 1 26 21
M  V30 21 2 26 22
M  V30 22 1 27 17
M  V30 23 1 27 19
M  V30 24 1 28 24
M  V30 25 1 29 20
M  V30 26 1 30 8
M  V30 27 1 30 19
M  V30 28 1 31 24
M  V30 29 1 32 26
M  V30 30 1 33 14
M  V30 31 1 34 9
M  V30 32 1 34 31
M  V30 33 1 35 11
M  V30 34 1 35 18
M  V30 35 1 35 28
M  V30 36 1 37 17
M  V30 37 1 38 14
M  V30 38 1 39 29 CFG=3
M  V30 39 1 39 30
M  V30 40 1 39 32
M  V30 41 1 39 37
M  V30 42 1 40 2
M  V30 43 2 40 5
M  V30 44 1 40 27
M  V30 45 1 41 3
M  V30 46 1 42 6
M  V30 47 1 43 3
M  V30 48 1 43 32
M  V30 49 1 43 36
M  V30 50 1 44 1
M  V30 51 1 45 1
M  V30 52 1 46 2
M  V30 53 1 47 2
M  V30 54 1 3 48 CFG=3
M  V30 55 1 49 4
M  V30 56 1 50 4
M  V30 57 1 51 6
M  V30 58 1 52 7
M  V30 59 1 53 7
M  V30 60 1 54 8
M  V30 61 1 55 8
M  V30 62 1 9 56 CFG=3
M  V30 63 1 10 57 CFG=1
M  V30 64 1 11 58 CFG=1
M  V30 65 1 12 59 CFG=1
M  V30 66 1 60 13
M  V30 67 1 61 13
M  V30 68 1 14 62 CFG=3
M  V30 69 1 63 15
M  V30 70 1 64 15
M  V30 71 1 65 15
M  V30 72 1 16 66 CFG=1
M  V30 73 1 67 17
M  V30 74 1 68 17
M  V30 75 1 18 69 CFG=1
M  V30 76 1 70 19
M  V30 77 1 71 19
M  V30 78 1 72 20
M  V30 79 1 73 20
M  V30 80 1 74 21
M  V30 81 1 75 21
M  V30 82 1 25 76 CFG=3
M  V30 83 1 27 77 CFG=1
M  V30 84 1 78 28
M  V30 85 1 79 28
M  V30 86 1 80 29
M  V30 87 1 81 29
M  V30 88 1 30 82 CFG=1
M  V30 89 1 83 31
M  V30 90 1 84 31
M  V30 91 1 32 85 CFG=3
M  V30 92 1 86 33
M  V30 93 1 87 33
M  V30 94 1 88 33
M  V30 95 1 89 34
M  V30 96 1 90 34
M  V30 97 1 35 91 CFG=1
M  V30 98 1 92 36
M  V30 99 1 93 37
M  V30 100 1 94 37
M  V30 101 1 95 38
M  V30 102 1 96 41
M  V30 103 1 97 41
M  V30 104 1 98 41
M  V30 105 1 99 42
M  V30 106 1 100 42
M  V30 107 1 101 42
M  V30 108 1 43 102 CFG=3
M  V30 109 1 24 103 CFG=1
M  V30 END BOND
M  V30 END CTAB
M  END
>  <i_epik_Tot_Q>  (1) 
1

>  <i_epik_Tot_abs_Q>  (1) 
1

>  <i_i_glide_confnum>  (1) 
1801

>  <i_i_glide_lignum>  (1) 
52

>  <i_i_glide_posenum>  (1) 
248

>  <i_i_glide_rotatable_bonds>  (1) 
13

>  <i_lp_mmshare_version>  (1) 
72125

>  <i_m_source_file_index>  (1) 
32

>  <i_f3d_flags>  (1) 
0

>  <num_sample>  (1) 
100

>  <b_lp_Chiralities_Consistent>  (1) 
1

>  <r_epik_Charging_Adjusted_Penalty>  (1) 
0.00082013732971917403

>  <r_epik_Ionization_Penalty>  (1) 
0.00082046965520535795

>  <r_epik_Ionization_Penalty_Charging>  (1) 
0.00082013732971917403

>  <r_epik_Ionization_Penalty_Neutral>  (1) 
3.3232548618397322e-07

>  <r_epik_State_Penalty>  (1) 
-0

>  <r_glide_ring_energy>  (1) 
1.7158683604837162

>  <r_i_docking_score>  (1) 
-2.7566786600248436

>  <r_i_glide_ecoul>  (1) 
-4.3973139001761385

>  <r_i_glide_eff_state_penalty>  (1) 
-0

>  <r_i_glide_einternal>  (1) 
29.152140137357136

>  <r_i_glide_emodel>  (1) 
12.252682957075427

>  <r_i_glide_emodel_strain>  (1) 
6.8098401514543809

>  <r_i_glide_energy>  (1) 
-3.9745096214256272

>  <r_i_glide_erotb>  (1) 
0.46956192147436254

>  <r_i_glide_esite>  (1) 
-0.022658476276921746

>  <r_i_glide_evdw>  (1) 
0.42280427875051135

>  <r_i_glide_gscore>  (1) 
-2.7566786600248436

>  <r_i_glide_gscore_strain>  (1) 
0.70246003786359523

>  <r_i_glide_hbond>  (1) 
0

>  <r_i_glide_ligand_efficiency>  (1) 
-0.064108806047089392

>  <r_i_glide_ligand_efficiency_ln>  (1) 
-0.57898819479115282

>  <r_i_glide_ligand_efficiency_sa>  (1) 
-0.22459866675908169

>  <r_i_glide_lipo>  (1) 
-2.408644357217117

>  <r_i_glide_metal>  (1) 
-0

>  <r_i_glide_rewards>  (1) 
-0.85894091477986734

>  <r_lp_Energy>  (1) 
61.299568000000001

>  <r_lp_tautomer_probability>  (1) 
1

>  <s_epik_cmdline>  (1) 
J2VwaWtfcHl0aG9uJywgJy1waHQnLCAnMS4wJywgJy1waCcsICc3LjQnLCAnLXRuJywgJzgnLCAnLW1hJywgJzUwMCcsICctaW1hZScsICc8aW5maWxlLm1hZT4nLCAnLW9tYWUnLCAnPG91dGZpbGUubWFlPic=

>  <s_epik_input>  (1) 
W0NIM11bQ0hdKFtDSDNdKVtDQEBIXTFbQ0BASF0oW0NAQEhdMTIpW0NIMl1OMltDSDJdW0NIMl1bQ0BASF0oW0NIMl1bQ0gyXTMpT1tDSDJdW0NAQEhdKFtDQEBIXTM0KVtDQEBIXTRbQ0BIXShbQ0BASF0oW0NIM10pW09IXSlbQ0gyXVtDSDJdQyg9TylbQ0BASF0oW0NIMl1bQ0gyXTUpW0NIMl1bQ0BASF0oW0NIMl1bQ0gyXVtDSDJdNilbQ0BdNTZbQ0BASF0oW0NASF03W09IXSlDKD1PKVtDSDJdW0NAQEhdN1tDSDNd

>  <s_glide_docking_method>  (1) 
confgen

>  <s_i_glide_gridfile>  (1) 
gpcr_drd2_6luq_protein_autoprepared_prepared

>  <s_lp_Force_Field>  (1) 
S-OPLS

>  <s_lp_Variant>  (1) 
DiffSBDD_31-1

>  <s_m_source_file>  (1) 
generated_generic_title2_ligand_DiffSBDD_2026-06-23_prepared.sdf

>  <GenAI_Model>  (1) 
DiffSBDD

>  <Protein>  (1) 
generic_title2

$$$$
DiffSBDD_56
     RDKit          3D

  0  0  0  0  0  0  0  0  0  0999 V3000
M  V30 BEGIN CTAB
M  V30 COUNTS 88 91 0 0 1
M  V30 BEGIN ATOM
M  V30 1 C 9.666115 6.194968 -7.716486 0 CFG=1
M  V30 2 C 10.306840 7.699740 -11.466842 0
M  V30 3 C 10.960012 4.390539 -17.018975 0
M  V30 4 C 5.915950 6.083451 -19.574378 0
M  V30 5 C 9.399863 7.073742 -10.364350 0 CFG=1
M  V30 6 C 6.190651 7.500910 -19.126012 0
M  V30 7 F 13.337940 9.591508 -6.259965 0
M  V30 8 C 11.677269 8.433575 -8.422124 0
M  V30 9 C 6.846225 4.820896 -13.558704 0 CFG=2
M  V30 10 O 8.975675 8.632134 -6.716503 0
M  V30 11 C 9.169679 4.797258 -14.419577 0
M  V30 12 F 6.917430 5.560257 -20.280057 0
M  V30 13 O 11.188391 6.790697 -12.113117 0
M  V30 14 C 7.151550 6.723320 -11.872268 0 CFG=2
M  V30 15 F 5.780578 8.397885 -16.787596 0
M  V30 16 O 7.900887 5.067072 -10.443993 0
M  V30 17 C 5.752359 4.141366 -12.708964 0
M  V30 18 C 12.040532 9.407550 -6.027707 0
M  V30 19 S 9.966393 7.574906 -6.500705 0
M  V30 20 C 5.646388 5.382505 -18.229082 0 CFG=2
M  V30 21 N 4.993570 6.356464 -17.346013 0
M  V30 22 O 10.175342 6.956298 -5.185188 0
M  V30 23 F 4.825427 6.030927 -20.343158 0
M  V30 24 C 3.010326 7.688391 -16.785098 0
M  V30 25 C 8.407387 6.153393 -11.157406 0 CFG=2
M  V30 26 C 11.544245 7.043358 -9.049519 0
M  V30 27 O 7.656339 9.190225 -11.185028 0
M  V30 28 C 6.945197 4.831248 -17.546610 0
M  V30 29 C 3.931343 7.215226 -17.864868 0 CFG=1
M  V30 30 O 7.025109 6.216010 -13.222555 0
M  V30 31 C 8.260436 5.722928 -7.581947 0
M  V30 32 C 10.182013 6.406330 -9.201814 0 CFG=1
M  V30 33 C 7.039486 8.254953 -12.057505 0
M  V30 34 F 11.393853 10.527916 -6.293075 0
M  V30 35 C 11.582932 8.241341 -6.915375 0 CFG=1
M  V30 36 O 8.175393 4.390228 -7.985027 0
M  V30 37 C 6.389299 4.791469 -15.030546 0
M  V30 38 N 8.785742 4.787999 -15.851068 0 CFG=1 CHG=1
M  V30 39 C 7.397268 5.297404 -16.114461 0 CFG=1
M  V30 40 C 5.346314 7.658497 -17.874275 0 CFG=2
M  V30 41 C 8.159332 4.022051 -13.570886 0
M  V30 42 F 11.895925 9.127713 -4.734142 0
M  V30 43 C 9.867654 5.410823 -16.668624 0
M  V30 44 H 10.256453 5.388724 -7.278833 0
M  V30 45 H 10.902877 8.489235 -11.030243 0
M  V30 46 H 9.723346 8.180773 -12.251758 0
M  V30 47 H 11.672793 4.816309 -17.727249 0
M  V30 48 H 11.526365 4.088631 -16.137666 0
M  V30 49 H 10.541764 3.490689 -17.472574 0
M  V30 50 H 8.975378 7.895962 -9.818765 0
M  V30 51 H 5.941027 8.240646 -19.888970 0
M  V30 52 H 7.246802 7.587295 -18.878466 0
M  V30 53 H 12.643881 8.862036 -8.687714 0
M  V30 54 H 10.916031 9.126012 -8.784470 0
M  V30 55 H 9.244233 5.832367 -14.090759 0
M  V30 56 H 10.166133 4.392284 -14.282011 0
M  V30 57 H 10.691627 6.093246 -12.511289 0
M  V30 58 H 6.253112 6.435773 -11.318409 0
M  V30 59 H 7.146668 5.389733 -9.963109 0
M  V30 60 H 5.603523 3.108649 -13.025958 0
M  V30 61 H 5.979319 4.108476 -11.646000 0
M  V30 62 H 4.801357 4.652728 -12.829248 0
M  V30 63 H 4.975536 4.543102 -18.398153 0
M  V30 64 H 2.275388 8.390474 -17.182763 0
M  V30 65 H 2.524979 6.809663 -16.385263 0
M  V30 66 H 3.547802 8.202110 -15.991774 0
M  V30 67 H 9.032645 5.688045 -11.895600 0
M  V30 68 H 11.775425 6.339967 -8.292459 0
M  V30 69 H 12.232512 6.903199 -9.877961 0
M  V30 70 H 7.384921 8.868171 -10.307356 0
M  V30 71 H 7.756277 5.000313 -18.245024 0
M  V30 72 H 6.875808 3.742510 -17.535065 0
M  V30 73 H 3.440451 6.940690 -18.784615 0
M  V30 74 H 7.852839 5.868559 -6.579221 0
M  V30 75 H 7.775439 6.348864 -8.293404 0
M  V30 76 H 10.279167 5.384204 -9.552776 0
M  V30 77 H 7.395387 8.467845 -13.060916 0
M  V30 78 H 5.971596 8.463275 -11.985027 0
M  V30 79 H 12.175393 7.396444 -6.617276 0
M  V30 80 H 8.239173 4.385514 -8.937103 0
M  V30 81 H 6.175536 3.747679 -15.250417 0
M  V30 82 H 5.443480 5.325991 -15.100747 0
M  V30 83 H 7.428744 6.384977 -16.057359 0
M  V30 84 H 8.533915 3.804587 -12.575126 0
M  V30 85 H 8.007915 3.028236 -13.998858 0
M  V30 86 H 9.500231 5.855362 -17.592158 0
M  V30 87 H 10.319477 6.245183 -16.134257 0
M  V30 88 H 8.750853 3.814920 -16.121844 0
M  V30 END ATOM
M  V30 BEGIN BOND
M  V30 1 1 5 2
M  V30 2 1 6 4
M  V30 3 1 12 4
M  V30 4 1 13 2
M  V30 5 1 17 9
M  V30 6 1 18 7
M  V30 7 1 19 1
M  V30 8 2 19 10
M  V30 9 1 20 4
M  V30 10 1 21 20
M  V30 11 2 22 19
M  V30 12 1 23 4
M  V30 13 1 25 5
M  V30 14 1 25 14
M  V30 15 1 25 16
M  V30 16 1 26 8
M  V30 17 1 28 20
M  V30 18 1 29 21
M  V30 19 1 29 24
M  V30 20 1 9 30 CFG=1
M  V30 21 1 30 14
M  V30 22 1 31 1
M  V30 23 1 32 1
M  V30 24 1 32 5
M  V30 25 1 32 26
M  V30 26 1 33 14
M  V30 27 1 33 27
M  V30 28 1 34 18
M  V30 29 1 35 8
M  V30 30 1 35 18
M  V30 31 1 35 19
M  V30 32 1 36 31
M  V30 33 1 37 9
M  V30 34 1 38 11
M  V30 35 1 39 28
M  V30 36 1 39 37
M  V30 37 1 39 38
M  V30 38 1 40 6
M  V30 39 1 40 15 CFG=1
M  V30 40 1 40 21
M  V30 41 1 40 29
M  V30 42 1 41 9
M  V30 43 1 41 11
M  V30 44 1 42 18
M  V30 45 1 43 3
M  V30 46 1 43 38
M  V30 47 1 1 44 CFG=1
M  V30 48 1 45 2
M  V30 49 1 46 2
M  V30 50 1 47 3
M  V30 51 1 48 3
M  V30 52 1 49 3
M  V30 53 1 5 50 CFG=1
M  V30 54 1 51 6
M  V30 55 1 52 6
M  V30 56 1 53 8
M  V30 57 1 54 8
M  V30 58 1 55 11
M  V30 59 1 56 11
M  V30 60 1 57 13
M  V30 61 1 14 58 CFG=1
M  V30 62 1 59 16
M  V30 63 1 60 17
M  V30 64 1 61 17
M  V30 65 1 62 17
M  V30 66 1 20 63 CFG=3
M  V30 67 1 64 24
M  V30 68 1 65 24
M  V30 69 1 66 24
M  V30 70 1 25 67 CFG=3
M  V30 71 1 68 26
M  V30 72 1 69 26
M  V30 73 1 70 27
M  V30 74 1 71 28
M  V30 75 1 72 28
M  V30 76 1 29 73 CFG=3
M  V30 77 1 74 31
M  V30 78 1 75 31
M  V30 79 1 32 76 CFG=3
M  V30 80 1 77 33
M  V30 81 1 78 33
M  V30 82 1 35 79 CFG=1
M  V30 83 1 80 36
M  V30 84 1 81 37
M  V30 85 1 82 37
M  V30 86 1 39 83 CFG=3
M  V30 87 1 84 41
M  V30 88 1 85 41
M  V30 89 1 86 43
M  V30 90 1 87 43
M  V30 91 1 38 88 CFG=3
M  V30 END BOND
M  V30 END CTAB
M  END
>  <i_epik_Tot_Q>  (1) 
1

>  <i_epik_Tot_abs_Q>  (1) 
1

>  <i_i_glide_confnum>  (1) 
1051

>  <i_i_glide_lignum>  (1) 
90

>  <i_i_glide_posenum>  (1) 
57

>  <i_i_glide_rotatable_bonds>  (1) 
16

>  <i_lp_mmshare_version>  (1) 
72125

>  <i_m_source_file_index>  (1) 
57

>  <i_f3d_flags>  (1) 
0

>  <num_sample>  (1) 
100

>  <b_lp_Chiralities_Consistent>  (1) 
1

>  <r_epik_Charging_Adjusted_Penalty>  (1) 
0.01878207797614901

>  <r_epik_Ionization_Penalty>  (1) 
0.019451196131951093

>  <r_epik_Ionization_Penalty_Charging>  (1) 
0.01878207797614901

>  <r_epik_Ionization_Penalty_Neutral>  (1) 
0.0006691181558020811

>  <r_epik_State_Penalty>  (1) 
-0

>  <r_glide_ring_energy>  (1) 
0

>  <r_i_docking_score>  (1) 
-2.7419429187358126

>  <r_i_glide_ecoul>  (1) 
-14.726097109655653

>  <r_i_glide_eff_state_penalty>  (1) 
-0

>  <r_i_glide_einternal>  (1) 
9.4919778017971908

>  <r_i_glide_emodel>  (1) 
6.996736845708071

>  <r_i_glide_emodel_strain>  (1) 
18.122493425605228

>  <r_i_glide_energy>  (1) 
-11.67418318390126

>  <r_i_glide_erotb>  (1) 
0.34042408851888512

>  <r_i_glide_esite>  (1) 
-0.068559754978479423

>  <r_i_glide_evdw>  (1) 
3.0519139257543926

>  <r_i_glide_gscore>  (1) 
-2.7419429187358126

>  <r_i_glide_gscore_strain>  (1) 
3.530623356401307

>  <r_i_glide_hbond>  (1) 
-0.096021949813061752

>  <r_i_glide_ligand_efficiency>  (1) 
-0.063766114389204945

>  <r_i_glide_ligand_efficiency_ln>  (1) 
-0.5758932311410303

>  <r_i_glide_ligand_efficiency_sa>  (1) 
-0.22339808146953863

>  <r_i_glide_lipo>  (1) 
-2.4525932406391089

>  <r_i_glide_metal>  (1) 
-0

>  <r_i_glide_rewards>  (1) 
-1.939496548064727

>  <r_lp_Energy>  (1) 
36.609592999999997

>  <r_lp_tautomer_probability>  (1) 
1

>  <s_epik_cmdline>  (1) 
J2VwaWtfcHl0aG9uJywgJy1waHQnLCAnMS4wJywgJy1waCcsICc3LjQnLCAnLXRuJywgJzgnLCAnLW1hJywgJzUwMCcsICctaW1hZScsICc8aW5maWxlLm1hZT4nLCAnLW9tYWUnLCAnPG91dGZpbGUubWFlPic=

>  <s_epik_input>  (1) 
RkMoRikoRilbQ0BASF0xW0NIMl1bQ0gyXVtDQEBIXShbQ0BASF0oUzEoPU8pPU8pW0NIMl1bT0hdKVtDQEBIXShbQ0gyXVtPSF0pW0NAQEhdKFtPSF0pW0NAQEhdKFtDSDJdW09IXSlPW0NAQF0yKFtDSDNdKVtDSDJdW0NAQEhdKE4oW0NIMl1bQ0gyXTIpW0NIMl1bQ0gzXSlbQ0gyXVtDQEhdKEMoRikoRilbQ0gyXTMpTihbQ0BAXTM0RilbQ0BIXTRbQ0gzXQ==

>  <s_glide_docking_method>  (1) 
confgen

>  <s_i_glide_gridfile>  (1) 
gpcr_drd2_6luq_protein_autoprepared_prepared

>  <s_lp_Force_Field>  (1) 
S-OPLS

>  <s_lp_Variant>  (1) 
DiffSBDD_56-2

>  <s_m_source_file>  (1) 
generated_generic_title2_ligand_DiffSBDD_2026-06-23_prepared.sdf

>  <GenAI_Model>  (1) 
DiffSBDD

>  <Protein>  (1) 
generic_title2

$$$$
DiffSBDD_74
     RDKit          3D

  0  0  0  0  0  0  0  0  0  0999 V3000
M  V30 BEGIN CTAB
M  V30 COUNTS 92 99 0 0 1
M  V30 BEGIN ATOM
M  V30 1 C -0.145900 20.027998 5.398854 0 CFG=2
M  V30 2 N -1.456544 17.652199 -3.350892 0
M  V30 3 C -2.469347 18.078451 -5.525494 0
M  V30 4 C -1.391218 16.896309 -2.127856 0
M  V30 5 F 1.507929 18.905797 0.915893 0
M  V30 6 O -0.936241 22.341484 5.545432 0
M  V30 7 O -2.647800 21.170676 1.202039 0
M  V30 8 C -0.369663 18.635133 -3.667387 0 CFG=1
M  V30 9 C -4.118823 16.532806 -8.387697 0
M  V30 10 C -1.236810 21.061830 4.990218 0 CFG=1
M  V30 11 C -3.712554 20.118542 3.852079 0 CFG=2
M  V30 12 C -2.551803 17.465107 -4.305632 0
M  V30 13 C -0.490567 22.275293 -1.532743 0
M  V30 14 C -0.919952 19.647076 2.875158 0 CFG=1
M  V30 15 C -4.069093 16.747669 -6.981248 0
M  V30 16 C 0.600324 19.649245 1.537300 0
M  V30 17 C -1.114972 17.631676 1.110552 0 CFG=2
M  V30 18 C -3.502711 20.042945 1.344350 0 CFG=1
M  V30 19 C 0.509606 19.265359 3.051764 0 CFG=1
M  V30 20 O -0.394543 17.375477 -1.345766 0
M  V30 21 O -4.700604 19.774993 6.020038 0
M  V30 22 O -3.144209 22.425682 4.303133 0
M  V30 23 C -3.911313 19.139395 5.033839 0 CFG=1
M  V30 24 S -0.393266 20.463658 -1.519990 0 CHG=1
M  V30 25 C -4.857012 20.162673 0.690212 0
M  V30 26 C -4.617758 17.834126 4.650605 0
M  V30 27 C 0.398087 20.270421 6.807266 0
M  V30 28 N -4.224593 16.390225 -9.529485 0
M  V30 29 C -1.261496 18.894620 -5.955407 0
M  V30 30 C -3.735571 16.634644 -3.898466 0
M  V30 31 C -0.666512 22.316887 2.810597 0
M  V30 32 C -1.287329 21.060822 3.469712 0 CFG=2
M  V30 33 O -2.119463 15.967203 -1.786982 0
M  V30 34 C -2.554204 17.072093 1.060221 0
M  V30 35 C -2.026486 20.038084 -0.859843 0
M  V30 36 C 1.027931 19.909684 4.351643 0
M  V30 37 F 0.902359 20.912819 1.272550 0
M  V30 38 C -0.932717 19.205355 1.384523 0 CFG=1
M  V30 39 C -4.542469 15.814002 -6.157951 0
M  V30 40 C -0.250088 16.933270 0.007201 0
M  V30 41 C -2.109377 19.964956 0.649666 0 CFG=1
M  V30 42 C -0.025370 18.580977 -5.144160 0
M  V30 43 O -3.525756 19.391228 2.626923 0
M  V30 44 C -0.694806 20.098002 -3.265087 0
M  V30 45 C -3.581494 18.067822 -6.521410 0
M  V30 46 C -2.593023 21.129734 4.172353 0 CFG=1
M  V30 47 C -4.578134 15.918175 -4.702755 0
M  V30 48 H -0.633166 19.054665 5.463483 0
M  V30 49 H -0.638395 22.214155 6.434154 0
M  V30 50 H 0.575673 18.360949 -3.197482 0
M  V30 51 H -4.648007 20.661220 3.700781 0
M  V30 52 H -0.508470 22.664036 -0.516078 0
M  V30 53 H -1.388137 22.616384 -2.048685 0
M  V30 54 H 0.378986 22.692805 -2.041009 0
M  V30 55 H -1.450487 18.869662 3.423649 0
M  V30 56 H -0.749977 17.120487 1.998341 0
M  V30 57 H 0.621590 18.185597 3.146682 0
M  V30 58 H -4.354902 20.641702 6.176640 0
M  V30 59 H -2.462734 22.929755 4.736605 0
M  V30 60 H -2.952839 18.879185 5.480528 0
M  V30 61 H -5.469796 20.837814 1.282950 0
M  V30 62 H -5.339651 19.186607 0.645473 0
M  V30 63 H -4.783639 20.566883 -0.317809 0
M  V30 64 H -3.957184 17.188502 4.074662 0
M  V30 65 H -5.495745 18.030710 4.041353 0
M  V30 66 H -4.926945 17.271571 5.532229 0
M  V30 67 H 1.025620 21.160598 6.864435 0
M  V30 68 H 0.991248 19.422267 7.150617 0
M  V30 69 H -0.446635 20.392855 7.475890 0
M  V30 70 H -1.040121 18.680568 -7.002024 0
M  V30 71 H -1.513776 19.954179 -5.907113 0
M  V30 72 H -3.934835 16.549441 -2.848576 0
M  V30 73 H -0.782807 22.358283 1.734666 0
M  V30 74 H 0.391432 22.403363 3.049347 0
M  V30 75 H -1.126250 23.229047 3.175773 0
M  V30 76 H -3.164070 17.510130 0.272391 0
M  V30 77 H -3.069601 17.186382 2.007586 0
M  V30 78 H -2.542305 15.996522 0.880607 0
M  V30 79 H -2.734368 20.778943 -1.229510 0
M  V30 80 H -2.387285 19.100918 -1.257191 0
M  V30 81 H 1.511503 20.869309 4.174624 0
M  V30 82 H 1.775410 19.273488 4.814975 0
M  V30 83 H -4.955466 14.919612 -6.602935 0
M  V30 84 H 0.799780 16.973455 0.275202 0
M  V30 85 H -0.456877 15.863221 0.040929 0
M  V30 86 H 0.782994 19.269882 -5.393718 0
M  V30 87 H 0.337838 17.590227 -5.397721 0
M  V30 88 H -0.034680 20.767053 -3.817607 0
M  V30 89 H -1.712177 20.380336 -3.537837 0
M  V30 90 H -4.424538 18.604990 -6.084755 0
M  V30 91 H -3.298814 18.653263 -7.397657 0
M  V30 92 H -5.332963 15.331400 -4.199763 0
M  V30 END ATOM
M  V30 BEGIN BOND
M  V30 1 1 4 2
M  V30 2 1 8 2
M  V30 3 1 10 1
M  V30 4 1 10 6 CFG=3
M  V30 5 1 12 2
M  V30 6 2 12 3
M  V30 7 1 15 9
M  V30 8 1 16 5
M  V30 9 1 18 7
M  V30 10 1 19 14
M  V30 11 1 19 16
M  V30 12 1 20 4
M  V30 13 1 23 11
M  V30 14 1 23 21
M  V30 15 1 24 13 CFG=3
M  V30 16 1 18 25 CFG=3
M  V30 17 1 26 23
M  V30 18 1 27 1
M  V30 19 3 28 9
M  V30 20 1 29 3
M  V30 21 1 30 12
M  V30 22 1 32 10
M  V30 23 1 32 14
M  V30 24 1 32 31 CFG=3
M  V30 25 2 33 4
M  V30 26 1 34 17
M  V30 27 1 35 24
M  V30 28 1 36 1
M  V30 29 1 36 19
M  V30 30 1 37 16
M  V30 31 1 38 14
M  V30 32 1 38 16 CFG=3
M  V30 33 1 38 17
M  V30 34 2 39 15
M  V30 35 1 40 17
M  V30 36 1 40 20
M  V30 37 1 41 7 CFG=1
M  V30 38 1 41 18
M  V30 39 1 41 35
M  V30 40 1 41 38
M  V30 41 1 42 8
M  V30 42 1 42 29
M  V30 43 1 43 11
M  V30 44 1 43 18
M  V30 45 1 44 8
M  V30 46 1 44 24
M  V30 47 1 45 3
M  V30 48 1 45 15
M  V30 49 1 46 10
M  V30 50 1 46 11
M  V30 51 1 46 22 CFG=3
M  V30 52 1 46 32
M  V30 53 2 47 30
M  V30 54 1 47 39
M  V30 55 1 1 48 CFG=1
M  V30 56 1 49 6
M  V30 57 1 8 50 CFG=1
M  V30 58 1 11 51 CFG=3
M  V30 59 1 52 13
M  V30 60 1 53 13
M  V30 61 1 54 13
M  V30 62 1 14 55 CFG=1
M  V30 63 1 17 56 CFG=1
M  V30 64 1 19 57 CFG=3
M  V30 65 1 58 21
M  V30 66 1 59 22
M  V30 67 1 23 60 CFG=1
M  V30 68 1 61 25
M  V30 69 1 62 25
M  V30 70 1 63 25
M  V30 71 1 64 26
M  V30 72 1 65 26
M  V30 73 1 66 26
M  V30 74 1 67 27
M  V30 75 1 68 27
M  V30 76 1 69 27
M  V30 77 1 70 29
M  V30 78 1 71 29
M  V30 79 1 72 30
M  V30 80 1 73 31
M  V30 81 1 74 31
M  V30 82 1 75 31
M  V30 83 1 76 34
M  V30 84 1 77 34
M  V30 85 1 78 34
M  V30 86 1 79 35
M  V30 87 1 80 35
M  V30 88 1 81 36
M  V30 89 1 82 36
M  V30 90 1 83 39
M  V30 91 1 84 40
M  V30 92 1 85 40
M  V30 93 1 86 42
M  V30 94 1 87 42
M  V30 95 1 88 44
M  V30 96 1 89 44
M  V30 97 1 90 45
M  V30 98 1 91 45
M  V30 99 1 92 47
M  V30 END BOND
M  V30 END CTAB
M  END
>  <i_epik_Tot_Q>  (1) 
1

>  <i_epik_Tot_abs_Q>  (1) 
1

>  <i_i_glide_confnum>  (1) 
2

>  <i_i_glide_lignum>  (1) 
121

>  <i_i_glide_posenum>  (1) 
111

>  <i_i_glide_rotatable_bonds>  (1) 
4

>  <i_lp_mmshare_version>  (1) 
72125

>  <i_m_source_file_index>  (1) 
75

>  <i_f3d_flags>  (1) 
0

>  <num_sample>  (1) 
100

>  <b_lp_Chiralities_Consistent>  (1) 
1

>  <r_epik_Charging_Adjusted_Penalty>  (1) 
0

>  <r_epik_Ionization_Penalty>  (1) 
2.279428951435475e-07

>  <r_epik_Ionization_Penalty_Charging>  (1) 
0

>  <r_epik_Ionization_Penalty_Neutral>  (1) 
2.279428951435475e-07

>  <r_epik_State_Penalty>  (1) 
-0

>  <r_glide_ring_energy>  (1) 
0

>  <r_i_docking_score>  (1) 
-2.6960706212446039

>  <r_i_glide_ecoul>  (1) 
-0.38529617566059382

>  <r_i_glide_eff_state_penalty>  (1) 
-0

>  <r_i_glide_einternal>  (1) 
1.3696529016400336

>  <r_i_glide_emodel>  (1) 
-20.087240703338704

>  <r_i_glide_emodel_strain>  (1) 
1.1813090945248916

>  <r_i_glide_energy>  (1) 
-19.31213804521558

>  <r_i_glide_erotb>  (1) 
0.046727806610761473

>  <r_i_glide_esite>  (1) 
0

>  <r_i_glide_evdw>  (1) 
-18.926841869554988

>  <r_i_glide_gscore>  (1) 
-2.6960706212446039

>  <r_i_glide_gscore_strain>  (1) 
0

>  <r_i_glide_hbond>  (1) 
0

>  <r_i_glide_ligand_efficiency>  (1) 
-0.057363204707331999

>  <r_i_glide_ligand_efficiency_ln>  (1) 
-0.5558739326394988

>  <r_i_glide_ligand_efficiency_sa>  (1) 
-0.2070138291881545

>  <r_i_glide_lipo>  (1) 
-1.1192759431835559

>  <r_i_glide_metal>  (1) 
-0

>  <r_i_glide_rewards>  (1) 
-0.61938596484497088

>  <r_lp_Energy>  (1) 
145.95767599999999

>  <r_lp_tautomer_probability>  (1) 
1

>  <s_epik_Chemistry_Notes>  (1) 
This compound has an ester and may undergo hydrolysis at high or low pH.

>  <s_epik_cmdline>  (1) 
J2VwaWtfcHl0aG9uJywgJy1waHQnLCAnMS4wJywgJy1waCcsICc3LjQnLCAnLXRuJywgJzgnLCAnLW1hJywgJzUwMCcsICctaW1hZScsICc8aW5maWxlLm1hZT4nLCAnLW9tYWUnLCAnPG91dGZpbGUubWFlPic=

>  <s_epik_input>  (1) 
W0NIM11bQ0BASF0xW0NIMl1bQ0BIXShDMihGKUYpW0NASF0zW0NAXTQoW0NIM10pW0NAQF0xKFtPSF0pQzQoW09IXSlbQ0BIXShbQ0BASF0oW09IXSlbQ0gzXSlPW0NAQF0oTzUpKFtDSDNdKVtDQEBdNShbQ0BdMjM2KVtDSDJdW1MrXShbQ0gzXSlbQ0gyXVtDQEhdN04oQyg9TylPW0NIMl1bQ0BASF02W0NIM10pQzg9QyhbQ0gyXVtDSDJdNylbQ0gyXUMoQyNOKT1bQ0hdW0NIXT1bQ0hdOA==

>  <s_glide_docking_method>  (1) 
confgen

>  <s_i_glide_gridfile>  (1) 
gpcr_drd2_6luq_protein_autoprepared_prepared

>  <s_lp_Force_Field>  (1) 
S-OPLS

>  <s_lp_Variant>  (1) 
DiffSBDD_74-1

>  <s_m_source_file>  (1) 
generated_generic_title2_ligand_DiffSBDD_2026-06-23_prepared.sdf

>  <GenAI_Model>  (1) 
DiffSBDD

>  <Protein>  (1) 
generic_title2

$$$$
DiffSBDD_25
     RDKit          3D

  0  0  0  0  0  0  0  0  0  0999 V3000
M  V30 BEGIN CTAB
M  V30 COUNTS 64 67 0 0 1
M  V30 BEGIN ATOM
M  V30 1 C 11.640009 6.232504 -22.983288 0
M  V30 2 C 8.401950 -0.862142 -17.705835 0
M  V30 3 C 14.242619 1.615275 -18.804514 0
M  V30 4 C 12.044738 1.943485 -17.687316 0
M  V30 5 N 13.411912 2.437306 -17.913529 0
M  V30 6 C 6.250452 1.599373 -19.698868 0
M  V30 7 C 15.115647 3.432157 -16.571721 0
M  V30 8 C 7.372357 0.990668 -19.098180 0
M  V30 9 C 14.622554 2.298086 -20.184353 0 CFG=1
M  V30 10 C 12.281732 5.259182 -20.775976 0
M  V30 11 C 13.316772 4.852117 -17.312664 0
M  V30 12 O 10.781072 -0.809770 -17.585026 0
M  V30 13 C 11.633821 6.351753 -18.342302 0 CFG=1
M  V30 14 C 17.178294 2.011216 -20.385026 0
M  V30 15 C 8.702802 1.583710 -19.256814 0
M  V30 16 C 7.206500 -0.197887 -18.357077 0
M  V30 17 C 13.591386 3.158308 -21.000088 0
M  V30 18 C 9.834932 1.041986 -18.760835 0
M  V30 19 C 11.566312 4.993553 -22.079534 0
M  V30 20 O 17.031030 0.834692 -19.985019 0
M  V30 21 C 12.154084 5.050085 -17.943877 0
M  V30 22 C 11.879819 6.453114 -19.876817 0 CFG=2
M  V30 23 C 4.975290 1.021419 -19.564047 0
M  V30 24 C 9.775347 -0.237978 -17.993539 0
M  V30 25 C 13.946492 3.541750 -17.225731 0
M  V30 26 C 16.012833 2.984835 -20.152852 0
M  V30 27 C 10.483532 6.536261 -19.302561 0
M  V30 28 C 4.812404 -0.163456 -18.823654 0
M  V30 29 C 5.926113 -0.772148 -18.218837 0
M  V30 30 C 11.220275 1.651635 -18.972125 0
M  V30 31 N 13.245158 4.462775 -20.375212 0 CHG=1
M  V30 32 O 18.191751 2.469154 -20.953178 0 CHG=-1
M  V30 33 H 11.122053 6.047221 -23.923402 0
M  V30 34 H 12.671735 6.494562 -23.221786 0
M  V30 35 H 11.167586 7.101884 -22.524155 0
M  V30 36 H 8.248331 -0.867633 -16.626290 0
M  V30 37 H 8.430560 -1.905789 -18.019730 0
M  V30 38 H 15.148473 1.314042 -18.280488 0
M  V30 39 H 13.743154 0.667463 -19.000813 0
M  V30 40 H 11.495181 2.598799 -17.011951 0
M  V30 41 H 12.186997 1.027150 -17.121851 0
M  V30 42 H 6.370223 2.508368 -20.269942 0
M  V30 43 H 15.559461 4.284300 -16.077314 0
M  V30 44 H 15.639027 2.489826 -16.516752 0
M  V30 45 H 14.740444 1.438145 -20.846324 0
M  V30 46 H 13.869497 5.713546 -16.963517 0
M  V30 47 H 11.974897 7.190282 -17.738645 0
M  V30 48 H 8.759715 2.501838 -19.823215 0
M  V30 49 H 14.003968 3.383687 -21.984690 0
M  V30 50 H 12.668909 2.599444 -21.151445 0
M  V30 51 H 11.965465 4.142092 -22.626182 0
M  V30 52 H 11.616868 4.212389 -18.328186 0
M  V30 53 H 4.120940 1.487551 -20.028598 0
M  V30 54 H 16.076108 3.742092 -20.935233 0
M  V30 55 H 16.168945 3.511050 -19.212496 0
M  V30 56 H 9.814383 5.688629 -19.439438 0
M  V30 57 H 9.996951 7.509419 -19.316721 0
M  V30 58 H 3.831330 -0.605190 -18.719375 0
M  V30 59 H 5.800193 -1.682298 -17.649480 0
M  V30 60 H 11.095565 2.561927 -19.553878 0
M  V30 61 H 11.748009 0.958581 -19.625089 0
M  V30 62 H 12.308416 7.376756 -20.262020 0
M  V30 63 H 10.524250 4.759245 -21.860210 0
M  V30 64 H 13.710103 4.677338 -19.495249 0
M  V30 END ATOM
M  V30 BEGIN BOND
M  V30 1 1 5 3
M  V30 2 1 5 4
M  V30 3 2 8 6
M  V30 4 1 9 3
M  V30 5 1 15 8
M  V30 6 1 16 2
M  V30 7 1 16 8
M  V30 8 1 17 9
M  V30 9 2 18 15
M  V30 10 1 19 1
M  V30 11 1 19 10
M  V30 12 2 20 14
M  V30 13 2 21 11
M  V30 14 1 21 13
M  V30 15 1 22 10
M  V30 16 1 22 13
M  V30 17 1 23 6
M  V30 18 1 24 2
M  V30 19 2 24 12
M  V30 20 1 24 18
M  V30 21 1 25 5
M  V30 22 2 25 7
M  V30 23 1 25 11
M  V30 24 1 26 9
M  V30 25 1 26 14
M  V30 26 1 27 13
M  V30 27 1 27 22
M  V30 28 2 28 23
M  V30 29 2 29 16
M  V30 30 1 29 28
M  V30 31 1 30 4
M  V30 32 1 30 18
M  V30 33 2 31 10
M  V30 34 1 31 17
M  V30 35 1 32 14
M  V30 36 1 33 1
M  V30 37 1 34 1
M  V30 38 1 35 1
M  V30 39 1 36 2
M  V30 40 1 37 2
M  V30 41 1 38 3
M  V30 42 1 39 3
M  V30 43 1 40 4
M  V30 44 1 41 4
M  V30 45 1 42 6
M  V30 46 1 43 7
M  V30 47 1 44 7
M  V30 48 1 9 45 CFG=3
M  V30 49 1 46 11
M  V30 50 1 13 47 CFG=1
M  V30 51 1 48 15
M  V30 52 1 49 17
M  V30 53 1 50 17
M  V30 54 1 51 19
M  V30 55 1 52 21
M  V30 56 1 53 23
M  V30 57 1 54 26
M  V30 58 1 55 26
M  V30 59 1 56 27
M  V30 60 1 57 27
M  V30 61 1 58 28
M  V30 62 1 59 29
M  V30 63 1 60 30
M  V30 64 1 61 30
M  V30 65 1 22 62 CFG=1
M  V30 66 1 63 19
M  V30 67 1 64 31
M  V30 END BOND
M  V30 END CTAB
M  END
>  <i_epik_Tot_Q>  (1) 
0

>  <i_epik_Tot_abs_Q>  (1) 
2

>  <i_i_glide_confnum>  (1) 
112

>  <i_i_glide_lignum>  (1) 
43

>  <i_i_glide_posenum>  (1) 
254

>  <i_i_glide_rotatable_bonds>  (1) 
6

>  <i_lp_mmshare_version>  (1) 
72125

>  <i_m_source_file_index>  (1) 
26

>  <i_f3d_flags>  (1) 
0

>  <num_sample>  (1) 
100

>  <b_lp_Chiralities_Consistent>  (1) 
1

>  <r_epik_Charging_Adjusted_Penalty>  (1) 
0.12353365736142194

>  <r_epik_Ionization_Penalty>  (1) 
13.465358995569625

>  <r_epik_Ionization_Penalty_Charging>  (1) 
0.062700894571276394

>  <r_epik_Ionization_Penalty_Neutral>  (1) 
13.402658100998348

>  <r_epik_State_Penalty>  (1) 
0.060832762790145552

>  <r_glide_ring_energy>  (1) 
0

>  <r_i_docking_score>  (1) 
-2.6916031002126979

>  <r_i_glide_ecoul>  (1) 
-1.22017666740016

>  <r_i_glide_eff_state_penalty>  (1) 
0.060832762790145552

>  <r_i_glide_einternal>  (1) 
4.7259581093798824

>  <r_i_glide_emodel>  (1) 
-26.083275587211265

>  <r_i_glide_emodel_strain>  (1) 
0.92709188827167566

>  <r_i_glide_energy>  (1) 
-24.63275742524965

>  <r_i_glide_erotb>  (1) 
0.42539970400538585

>  <r_i_glide_esite>  (1) 
0

>  <r_i_glide_evdw>  (1) 
-23.41258075784949

>  <r_i_glide_gscore>  (1) 
-2.7524358630028436

>  <r_i_glide_gscore_strain>  (1) 
0

>  <r_i_glide_hbond>  (1) 
0

>  <r_i_glide_ligand_efficiency>  (1) 
-0.084112596881646809

>  <r_i_glide_ligand_efficiency_ln>  (1) 
-0.60272330446707278

>  <r_i_glide_ligand_efficiency_sa>  (1) 
-0.26704084954740653

>  <r_i_glide_lipo>  (1) 
-0.9611662462223225

>  <r_i_glide_metal>  (1) 
-0

>  <r_i_glide_rewards>  (1) 
-0.86301378278340857

>  <r_lp_Energy>  (1) 
49.732040999999995

>  <s_epik_Chemistry_Notes>  (1) 
This compound has an imine and may undergo hydrolysis.

>  <s_epik_cmdline>  (1) 
J2VwaWtfcHl0aG9uJywgJy1waHQnLCAnMS4wJywgJy1waCcsICc3LjQnLCAnLXRuJywgJzgnLCAnLW1hJywgJzUwMCcsICctaW1hZScsICc8aW5maWxlLm1hZT4nLCAnLW9tYWUnLCAnPG91dGZpbGUubWFlPic=

>  <s_epik_input>  (1) 
W0NIM10vW0NIXT1DKFxbQ0BIXShbQ0BIXTEyKVtDSDJdMilbTkhdW0NIMl1bQ0BASF0oW0NIMl1DKD1PKVtPSF0pW0NIMl1OKEMoPVtDSDJdKS9bQ0hdPVtDSF0vMSlbQ0gyXVtDSDJdQyg9W0NIXTMpQyg9TylbQ0gyXWMoYzM0KVtjSF1bY0hdW2NIXVtjSF00

>  <s_glide_docking_method>  (1) 
confgen

>  <s_i_glide_gridfile>  (1) 
gpcr_drd2_6luq_protein_autoprepared_prepared

>  <s_lp_Force_Field>  (1) 
S-OPLS

>  <s_lp_Variant>  (1) 
DiffSBDD_25-1

>  <s_m_source_file>  (1) 
generated_generic_title2_ligand_DiffSBDD_2026-06-23_prepared.sdf

>  <GenAI_Model>  (1) 
DiffSBDD

>  <Protein>  (1) 
generic_title2

$$$$
DiffSBDD_25
     RDKit          3D

  0  0  0  0  0  0  0  0  0  0999 V3000
M  V30 BEGIN CTAB
M  V30 COUNTS 64 67 0 0 1
M  V30 BEGIN ATOM
M  V30 1 C 5.181919 -0.024782 -18.278635 0
M  V30 2 C 6.794665 6.184660 -23.240456 0
M  V30 3 C 8.667468 4.581083 -18.390162 0
M  V30 4 C 9.031076 3.239692 -20.459693 0
M  V30 5 N 9.412763 3.509632 -19.062053 0
M  V30 6 C 4.843149 7.397625 -20.182937 0
M  V30 7 C 11.509496 3.721425 -17.944728 0
M  V30 8 C 5.631960 6.587861 -21.028505 0
M  V30 9 C 7.828814 4.139843 -17.121563 0 CFG=1
M  V30 10 C 7.387518 0.330239 -17.129350 0
M  V30 11 C 10.651479 1.497055 -18.293884 0
M  V30 12 O 8.104205 4.194295 -23.348916 0
M  V30 13 C 9.598707 -0.745990 -18.361340 0 CFG=1
M  V30 14 C 7.908253 4.229818 -14.587442 0
M  V30 15 C 6.132898 5.290769 -20.556515 0
M  V30 16 C 5.951433 7.041385 -22.322756 0
M  V30 17 C 7.002253 2.782509 -17.066481 0
M  V30 18 C 6.941119 4.481656 -21.282453 0
M  V30 19 C 5.916922 0.049053 -16.931598 0
M  V30 20 O 7.852342 3.111720 -14.032750 0
M  V30 21 C 9.730979 0.649637 -18.769475 0
M  V30 22 C 8.389079 -0.819221 -17.382665 0 CFG=2
M  V30 23 C 4.376741 8.649338 -20.633410 0
M  V30 24 C 7.347583 4.877467 -22.659793 0
M  V30 25 C 10.549915 2.937408 -18.469404 0
M  V30 26 C 8.717169 4.324158 -15.882920 0
M  V30 27 C 8.390397 -1.591085 -18.682787 0
M  V30 28 C 4.698227 9.097066 -21.925521 0
M  V30 29 C 5.484439 8.294719 -22.770314 0
M  V30 30 C 7.506719 3.153746 -20.763623 0
M  V30 31 N 7.837839 1.562701 -17.100776 0 CHG=1
M  V30 32 O 7.352117 5.273852 -14.190735 0 CHG=-1
M  V30 33 H 4.125096 -0.240450 -18.124154 0
M  V30 34 H 5.574089 -0.824009 -18.904674 0
M  V30 35 H 5.247529 0.907641 -18.838189 0
M  V30 36 H 6.163105 5.916207 -24.081001 0
M  V30 37 H 7.623974 6.779564 -23.623743 0
M  V30 38 H 9.367624 5.365362 -18.103859 0
M  V30 39 H 8.035368 5.106539 -19.084951 0
M  V30 40 H 9.528533 2.341065 -20.823306 0
M  V30 41 H 9.482492 4.030142 -21.058849 0
M  V30 42 H 4.596288 7.059512 -19.186427 0
M  V30 43 H 12.365686 3.294049 -17.442487 0
M  V30 44 H 11.452171 4.797511 -18.012268 0
M  V30 45 H 7.067507 4.916931 -17.032396 0
M  V30 46 H 11.429116 1.109867 -17.649521 0
M  V30 47 H 10.515071 -1.208136 -17.997046 0
M  V30 48 H 5.848434 4.996438 -19.556714 0
M  V30 49 H 6.468120 2.712274 -16.123534 0
M  V30 50 H 6.278789 2.720531 -17.877810 0
M  V30 51 H 5.819043 -0.910740 -16.413972 0
M  V30 52 H 8.926901 1.028571 -19.374153 0
M  V30 53 H 3.772080 9.265274 -19.985735 0
M  V30 54 H 9.514227 3.590960 -15.952787 0
M  V30 55 H 9.202327 5.301102 -15.890951 0
M  V30 56 H 7.759401 -1.246859 -19.499162 0
M  V30 57 H 8.502039 -2.671483 -18.617037 0
M  V30 58 H 4.341726 10.056493 -22.269502 0
M  V30 59 H 5.731414 8.639363 -23.764104 0
M  V30 60 H 7.339532 2.399766 -21.534619 0
M  V30 61 H 6.951031 2.800657 -19.900235 0
M  V30 62 H 8.510100 -1.400815 -16.470614 0
M  V30 63 H 5.447368 0.788133 -16.284777 0
M  V30 64 H 8.838585 1.709300 -17.221402 0
M  V30 END ATOM
M  V30 BEGIN BOND
M  V30 1 1 5 3
M  V30 2 1 5 4
M  V30 3 2 8 6
M  V30 4 1 9 3
M  V30 5 1 15 8
M  V30 6 1 16 2
M  V30 7 1 16 8
M  V30 8 1 17 9
M  V30 9 2 18 15
M  V30 10 1 19 1
M  V30 11 1 19 10
M  V30 12 2 20 14
M  V30 13 2 21 11
M  V30 14 1 21 13
M  V30 15 1 22 10
M  V30 16 1 22 13
M  V30 17 1 23 6
M  V30 18 1 24 2
M  V30 19 2 24 12
M  V30 20 1 24 18
M  V30 21 1 25 5
M  V30 22 2 25 7
M  V30 23 1 25 11
M  V30 24 1 26 9
M  V30 25 1 26 14
M  V30 26 1 27 13
M  V30 27 1 27 22
M  V30 28 2 28 23
M  V30 29 2 29 16
M  V30 30 1 29 28
M  V30 31 1 30 4
M  V30 32 1 30 18
M  V30 33 2 31 10
M  V30 34 1 31 17
M  V30 35 1 32 14
M  V30 36 1 33 1
M  V30 37 1 34 1
M  V30 38 1 35 1
M  V30 39 1 36 2
M  V30 40 1 37 2
M  V30 41 1 38 3
M  V30 42 1 39 3
M  V30 43 1 40 4
M  V30 44 1 41 4
M  V30 45 1 42 6
M  V30 46 1 43 7
M  V30 47 1 44 7
M  V30 48 1 9 45 CFG=1
M  V30 49 1 46 11
M  V30 50 1 13 47 CFG=1
M  V30 51 1 48 15
M  V30 52 1 49 17
M  V30 53 1 50 17
M  V30 54 1 51 19
M  V30 55 1 52 21
M  V30 56 1 53 23
M  V30 57 1 54 26
M  V30 58 1 55 26
M  V30 59 1 56 27
M  V30 60 1 57 27
M  V30 61 1 58 28
M  V30 62 1 59 29
M  V30 63 1 60 30
M  V30 64 1 61 30
M  V30 65 1 22 62 CFG=1
M  V30 66 1 63 19
M  V30 67 1 64 31
M  V30 END BOND
M  V30 END CTAB
M  END
>  <i_epik_Tot_Q>  (1) 
0

>  <i_epik_Tot_abs_Q>  (1) 
2

>  <i_i_glide_confnum>  (1) 
70

>  <i_i_glide_lignum>  (1) 
43

>  <i_i_glide_posenum>  (1) 
277

>  <i_i_glide_rotatable_bonds>  (1) 
6

>  <i_lp_mmshare_version>  (1) 
72125

>  <i_m_source_file_index>  (1) 
26

>  <i_f3d_flags>  (1) 
0

>  <num_sample>  (1) 
100

>  <b_lp_Chiralities_Consistent>  (1) 
1

>  <r_epik_Charging_Adjusted_Penalty>  (1) 
0.12353365736142194

>  <r_epik_Ionization_Penalty>  (1) 
13.465358995569625

>  <r_epik_Ionization_Penalty_Charging>  (1) 
0.062700894571276394

>  <r_epik_Ionization_Penalty_Neutral>  (1) 
13.402658100998348

>  <r_epik_State_Penalty>  (1) 
0.060832762790145552

>  <r_glide_ring_energy>  (1) 
0

>  <r_i_docking_score>  (1) 
-2.6915541355027117

>  <r_i_glide_ecoul>  (1) 
-0.54553095215272118

>  <r_i_glide_eff_state_penalty>  (1) 
0.060832762790145552

>  <r_i_glide_einternal>  (1) 
3.8158509577437023

>  <r_i_glide_emodel>  (1) 
-22.856300530921182

>  <r_i_glide_emodel_strain>  (1) 
1.2104119579838937

>  <r_i_glide_energy>  (1) 
-21.234133195997948

>  <r_i_glide_erotb>  (1) 
0.42539970400538585

>  <r_i_glide_esite>  (1) 
0

>  <r_i_glide_evdw>  (1) 
-20.688602243845228

>  <r_i_glide_gscore>  (1) 
-2.7523868982928574

>  <r_i_glide_gscore_strain>  (1) 
0

>  <r_i_glide_hbond>  (1) 
0

>  <r_i_glide_ligand_efficiency>  (1) 
-0.084111066734459741

>  <r_i_glide_ligand_efficiency_ln>  (1) 
-0.60271233993377926

>  <r_i_glide_ligand_efficiency_sa>  (1) 
-0.26703599163289771

>  <r_i_glide_lipo>  (1) 
-1.4297966217715072

>  <r_i_glide_metal>  (1) 
-0

>  <r_i_glide_rewards>  (1) 
-0.6317302255115671

>  <r_lp_Energy>  (1) 
49.732040999999995

>  <s_epik_Chemistry_Notes>  (1) 
This compound has an imine and may undergo hydrolysis.

>  <s_epik_cmdline>  (1) 
J2VwaWtfcHl0aG9uJywgJy1waHQnLCAnMS4wJywgJy1waCcsICc3LjQnLCAnLXRuJywgJzgnLCAnLW1hJywgJzUwMCcsICctaW1hZScsICc8aW5maWxlLm1hZT4nLCAnLW9tYWUnLCAnPG91dGZpbGUubWFlPic=

>  <s_epik_input>  (1) 
W0NIM10vW0NIXT1DKFxbQ0BIXShbQ0BIXTEyKVtDSDJdMilbTkhdW0NIMl1bQ0BASF0oW0NIMl1DKD1PKVtPSF0pW0NIMl1OKEMoPVtDSDJdKS9bQ0hdPVtDSF0vMSlbQ0gyXVtDSDJdQyg9W0NIXTMpQyg9TylbQ0gyXWMoYzM0KVtjSF1bY0hdW2NIXVtjSF00

>  <s_glide_docking_method>  (1) 
confgen

>  <s_i_glide_gridfile>  (1) 
gpcr_drd2_6luq_protein_autoprepared_prepared

>  <s_lp_Force_Field>  (1) 
S-OPLS

>  <s_lp_Variant>  (1) 
DiffSBDD_25-1

>  <s_m_source_file>  (1) 
generated_generic_title2_ligand_DiffSBDD_2026-06-23_prepared.sdf

>  <GenAI_Model>  (1) 
DiffSBDD

>  <Protein>  (1) 
generic_title2

$$$$
DiffSBDD_86
     RDKit          3D

  0  0  0  0  0  0  0  0  0  0999 V3000
M  V30 BEGIN CTAB
M  V30 COUNTS 113 116 0 0 1
M  V30 BEGIN ATOM
M  V30 1 C 4.878317 -1.153951 -19.920562 0
M  V30 2 C 5.060140 -1.754455 -18.519278 0 CFG=1
M  V30 3 C 9.503661 5.179771 -9.283645 0
M  V30 4 C 4.726476 8.434241 -20.276111 0
M  V30 5 C 11.465073 2.059994 -19.649975 0 CFG=2
M  V30 6 C 8.650136 5.184053 -13.989377 0
M  V30 7 O 9.111210 2.040341 -20.590550 0
M  V30 8 C 10.004529 4.139252 -19.956651 0 CFG=2
M  V30 9 O 7.071137 4.395445 -20.884433 0
M  V30 10 C 9.337792 3.344738 -21.093546 0 CFG=2
M  V30 11 C 12.890973 1.560474 -19.983338 0
M  V30 12 O 4.174205 -2.845795 -18.385928 0
M  V30 13 N 7.681174 5.590292 -10.921569 0
M  V30 14 C 8.278696 0.560958 -16.506174 0
M  V30 15 C 7.285085 -0.187042 -20.268494 0 CFG=1
M  V30 16 C 8.550475 4.628474 -16.301546 0 CFG=2
M  V30 17 O 8.570244 -2.617877 -20.227398 0
M  V30 18 C 3.768224 7.362897 -18.070440 0
M  V30 19 C 10.244569 1.215895 -20.253504 0 CFG=1
M  V30 20 C 10.572456 0.543625 -21.623185 0
M  V30 21 C 8.223015 0.059565 -19.075567 0 CFG=2
M  V30 22 O 4.975197 5.932389 -10.979517 0
M  V30 23 O 8.575507 4.010641 -13.616219 0
M  V30 24 N 6.532152 7.112493 -12.387441 0
M  V30 25 C 9.726836 0.199597 -19.198387 0
M  V30 26 C 11.432150 3.585506 -19.918210 0
M  V30 27 C 9.272924 6.086404 -6.923847 0
M  V30 28 O 8.667227 5.589191 -15.271531 0
M  V30 29 P 7.774991 -1.683612 -19.382033 0 CFG=1
M  V30 30 C 5.198099 7.743502 -17.745062 0 CFG=2
M  V30 31 C 6.473989 -2.259683 -18.206477 0
M  V30 32 C 11.280029 -0.822544 -21.604076 0
M  V30 33 C 4.789434 7.394957 -19.177529 0 CFG=2
M  V30 34 F 4.975438 4.802629 -11.890615 0
M  V30 35 C 6.020108 6.838526 -16.839942 0
M  V30 36 C 10.566229 -0.511262 -18.418474 0
M  V30 37 C 7.580032 0.728724 -17.858789 0
M  V30 38 C 7.548186 6.381274 -12.072157 0
M  V30 39 C 5.772304 0.051473 -20.270761 0
M  V30 40 C 9.444911 5.007363 -17.505320 0 CFG=2
M  V30 41 C 8.722613 6.344295 -13.003827 0
M  V30 42 C 8.844930 4.768837 -10.608987 0
M  V30 43 C 8.066861 3.921182 -21.763979 0
M  V30 44 C 9.266667 3.947923 -18.604886 0
M  V30 45 O 10.793747 4.999163 -17.076365 0
M  V30 46 C 6.385180 5.521946 -17.509913 0
M  V30 47 C 7.040772 4.468790 -16.596605 0
M  V30 48 C 8.573142 5.376411 -8.086506 0
M  V30 49 C 5.346978 7.169954 -11.571440 0
M  V30 50 H 3.847354 -0.807424 -19.985098 0
M  V30 51 H 4.997429 -1.928300 -20.680138 0
M  V30 52 H 4.770661 -1.005950 -17.781444 0
M  V30 53 H 10.176086 4.380462 -8.999079 0
M  V30 54 H 10.095985 6.082789 -9.437619 0
M  V30 55 H 4.326493 9.382195 -19.923552 0
M  V30 56 H 5.725861 8.602096 -20.675624 0
M  V30 57 H 4.089660 8.075837 -21.085761 0
M  V30 58 H 11.394623 1.991460 -18.564802 0
M  V30 59 H 10.027801 5.197761 -20.220422 0
M  V30 60 H 6.715058 3.653220 -20.422202 0
M  V30 61 H 10.037211 3.255783 -21.927280 0
M  V30 62 H 13.103338 1.619622 -21.050934 0
M  V30 63 H 13.637732 2.177353 -19.480509 0
M  V30 64 H 13.081475 0.541341 -19.658013 0
M  V30 65 H 4.197501 -3.163687 -17.493114 0
M  V30 66 H 6.954986 5.569693 -10.217052 0
M  V30 67 H 7.674390 0.996915 -15.710490 0
M  V30 68 H 8.438073 -0.487869 -16.258992 0
M  V30 69 H 9.236730 1.075055 -16.494570 0
M  V30 70 H 7.716187 -0.122296 -21.263572 0
M  V30 71 H 8.915048 3.662928 -15.948095 0
M  V30 72 H 3.423344 6.390582 -17.731839 0
M  V30 73 H 3.004608 8.134753 -18.055071 0
M  V30 74 H 9.645151 0.390256 -22.172581 0
M  V30 75 H 11.143873 1.233461 -22.246163 0
M  V30 76 H 12.027171 4.109470 -19.170929 0
M  V30 77 H 11.924176 3.808579 -20.865707 0
M  V30 78 H 8.627700 6.117249 -6.046424 0
M  V30 79 H 10.202707 5.590528 -6.646127 0
M  V30 80 H 9.505129 7.117548 -7.194310 0
M  V30 81 H 5.375425 8.790293 -17.530174 0
M  V30 82 H 6.758091 -2.004857 -17.186850 0
M  V30 83 H 6.513815 -3.348477 -18.253022 0
M  V30 84 H 11.366128 -1.211654 -22.619246 0
M  V30 85 H 12.288439 -0.780802 -21.201790 0
M  V30 86 H 10.717411 -1.552802 -21.024396 0
M  V30 87 H 5.067684 6.422998 -19.574551 0
M  V30 88 H 5.454744 6.652782 -15.925855 0
M  V30 89 H 6.925772 7.354622 -16.535900 0
M  V30 90 H 10.186681 -1.207220 -17.686211 0
M  V30 91 H 11.633358 -0.407462 -18.501287 0
M  V30 92 H 7.497491 1.780440 -18.102264 0
M  V30 93 H 6.556963 0.391026 -17.736010 0
M  V30 94 H 5.525953 0.901344 -19.634247 0
M  V30 95 H 5.505508 0.382903 -21.274675 0
M  V30 96 H 9.204166 5.997969 -17.888998 0
M  V30 97 H 9.682993 6.426405 -12.496798 0
M  V30 98 H 8.575859 7.253624 -13.585158 0
M  V30 99 H 8.479413 3.751438 -10.539583 0
M  V30 100 H 9.608188 4.726744 -11.381242 0
M  V30 101 H 7.626996 3.174636 -22.424968 0
M  V30 102 H 8.346024 4.763096 -22.397072 0
M  V30 103 H 8.212237 3.879553 -18.830228 0
M  V30 104 H 9.486407 2.975672 -18.172616 0
M  V30 105 H 10.956802 4.217039 -16.571906 0
M  V30 106 H 6.990761 5.719607 -18.392670 0
M  V30 107 H 5.453182 5.122850 -17.893375 0
M  V30 108 H 6.897066 3.501036 -17.061647 0
M  V30 109 H 6.498651 4.397556 -15.654025 0
M  V30 110 H 7.735133 5.990073 -8.384632 0
M  V30 111 H 8.163830 4.417145 -7.768905 0
M  V30 112 H 5.375416 7.958444 -10.826706 0
M  V30 113 H 4.575353 7.508990 -12.243922 0
M  V30 END ATOM
M  V30 BEGIN BOND
M  V30 1 1 2 1
M  V30 2 1 10 7
M  V30 3 1 10 8
M  V30 4 1 11 5
M  V30 5 1 12 2
M  V30 6 1 19 5
M  V30 7 1 19 7
M  V30 8 1 19 20 CFG=3
M  V30 9 1 21 15
M  V30 10 2 23 6
M  V30 11 1 25 19
M  V30 12 1 25 21
M  V30 13 1 26 5
M  V30 14 1 26 8
M  V30 15 1 28 6
M  V30 16 1 28 16
M  V30 17 1 29 15
M  V30 18 2 29 17
M  V30 19 1 29 21
M  V30 20 1 30 18
M  V30 21 1 31 2
M  V30 22 1 29 31 CFG=1
M  V30 23 1 32 20
M  V30 24 1 33 4
M  V30 25 1 33 18
M  V30 26 1 33 30
M  V30 27 1 34 22
M  V30 28 1 35 30
M  V30 29 2 36 25
M  V30 30 1 37 14
M  V30 31 1 21 37 CFG=1
M  V30 32 1 38 13
M  V30 33 2 38 24
M  V30 34 1 39 1
M  V30 35 1 39 15
M  V30 36 1 40 16
M  V30 37 1 41 6
M  V30 38 1 41 38
M  V30 39 1 42 3
M  V30 40 1 42 13
M  V30 41 1 43 9
M  V30 42 1 43 10
M  V30 43 1 44 8
M  V30 44 1 44 40
M  V30 45 1 45 40
M  V30 46 1 46 35
M  V30 47 1 47 16
M  V30 48 1 47 46
M  V30 49 1 48 3
M  V30 50 1 48 27
M  V30 51 1 49 22
M  V30 52 1 49 24
M  V30 53 1 50 1
M  V30 54 1 51 1
M  V30 55 1 2 52 CFG=1
M  V30 56 1 53 3
M  V30 57 1 54 3
M  V30 58 1 55 4
M  V30 59 1 56 4
M  V30 60 1 57 4
M  V30 61 1 5 58 CFG=1
M  V30 62 1 8 59 CFG=3
M  V30 63 1 60 9
M  V30 64 1 10 61 CFG=3
M  V30 65 1 62 11
M  V30 66 1 63 11
M  V30 67 1 64 11
M  V30 68 1 65 12
M  V30 69 1 66 13
M  V30 70 1 67 14
M  V30 71 1 68 14
M  V30 72 1 69 14
M  V30 73 1 15 70 CFG=3
M  V30 74 1 16 71 CFG=1
M  V30 75 1 72 18
M  V30 76 1 73 18
M  V30 77 1 74 20
M  V30 78 1 75 20
M  V30 79 1 76 26
M  V30 80 1 77 26
M  V30 81 1 78 27
M  V30 82 1 79 27
M  V30 83 1 80 27
M  V30 84 1 30 81 CFG=3
M  V30 85 1 82 31
M  V30 86 1 83 31
M  V30 87 1 84 32
M  V30 88 1 85 32
M  V30 89 1 86 32
M  V30 90 1 33 87 CFG=3
M  V30 91 1 88 35
M  V30 92 1 89 35
M  V30 93 1 90 36
M  V30 94 1 91 36
M  V30 95 1 92 37
M  V30 96 1 93 37
M  V30 97 1 94 39
M  V30 98 1 95 39
M  V30 99 1 40 96 CFG=3
M  V30 100 1 97 41
M  V30 101 1 98 41
M  V30 102 1 99 42
M  V30 103 1 100 42
M  V30 104 1 101 43
M  V30 105 1 102 43
M  V30 106 1 103 44
M  V30 107 1 104 44
M  V30 108 1 105 45
M  V30 109 1 106 46
M  V30 110 1 107 46
M  V30 111 1 108 47
M  V30 112 1 109 47
M  V30 113 1 110 48
M  V30 114 1 111 48
M  V30 115 1 112 49
M  V30 116 1 113 49
M  V30 END BOND
M  V30 END CTAB
M  END
>  <i_epik_Tot_Q>  (1) 
0

>  <i_epik_Tot_abs_Q>  (1) 
0

>  <i_i_glide_confnum>  (1) 
6568

>  <i_i_glide_lignum>  (1) 
155

>  <i_i_glide_posenum>  (1) 
60

>  <i_i_glide_rotatable_bonds>  (1) 
25

>  <i_lp_mmshare_version>  (1) 
72125

>  <i_m_source_file_index>  (1) 
87

>  <i_f3d_flags>  (1) 
0

>  <num_sample>  (1) 
100

>  <b_lp_Chiralities_Consistent>  (1) 
1

>  <r_epik_Charging_Adjusted_Penalty>  (1) 
1.2316584192148512

>  <r_epik_Ionization_Penalty>  (1) 
1.2316590375040075

>  <r_epik_Ionization_Penalty_Charging>  (1) 
0

>  <r_epik_Ionization_Penalty_Neutral>  (1) 
1.2316590375040075

>  <r_epik_State_Penalty>  (1) 
1.2316584192148512

>  <r_glide_ring_energy>  (1) 
0

>  <r_i_docking_score>  (1) 
-2.6775591093934978

>  <r_i_glide_ecoul>  (1) 
-3.9483737369800345

>  <r_i_glide_eff_state_penalty>  (1) 
1.2316584192148512

>  <r_i_glide_einternal>  (1) 
27.467772459996219

>  <r_i_glide_emodel>  (1) 
-26.830781148643382

>  <r_i_glide_emodel_strain>  (1) 
6.0674877067007316

>  <r_i_glide_energy>  (1) 
-38.068109306535206

>  <r_i_glide_erotb>  (1) 
0.57622798544967491

>  <r_i_glide_esite>  (1) 
-0.26456422083720277

>  <r_i_glide_evdw>  (1) 
-34.119735569555175

>  <r_i_glide_gscore>  (1) 
-3.909217528608349

>  <r_i_glide_gscore_strain>  (1) 
0.51687192667518289

>  <r_i_glide_hbond>  (1) 
-0.0010829990321766217

>  <r_i_glide_ligand_efficiency>  (1) 
-0.054644063457010159

>  <r_i_glide_ligand_efficiency_ln>  (1) 
-0.54735434791577575

>  <r_i_glide_ligand_efficiency_sa>  (1) 
-0.1999593334270949

>  <r_i_glide_lipo>  (1) 
-2.0344291936585015

>  <r_i_glide_metal>  (1) 
-0

>  <r_i_glide_rewards>  (1) 
-0.40399818818056277

>  <r_lp_Energy>  (1) 
45.821346999999996

>  <s_epik_Chemistry_Notes>  (1) 
This compound has an ester and may undergo hydrolysis at high or low pH. This compound has an imine and may undergo hydrolysis. This compound contains an acetal/aminal-like group ( X-CH(R)-Y where X, Y are N, S, or O) that may be acid/base labile, releasing an aldehyde.

>  <s_epik_cmdline>  (1) 
J2VwaWtfcHl0aG9uJywgJy1waHQnLCAnMS4wJywgJy1waCcsICc3LjQnLCAnLXRuJywgJzgnLCAnLW1hJywgJzUwMCcsICctaW1hZScsICc8aW5maWxlLm1hZT4nLCAnLW9tYWUnLCAnPG91dGZpbGUubWFlPic=

>  <s_epik_input>  (1) 
W09IXVtDQEBIXShbQ0gyXTEpW0NIMl1bQ0gyXVtDQEhdKFAxMj1PKVtDQEBdMihbQ0gyXVtDSDNdKUMoPVtDSDJdKVtDQF0zKFtDSDJdW0NIM10pW0NAQEhdKFtDSDNdKVtDSDJdW0NAQEhdKFtDQEBIXShPMylbQ0gyXVtPSF0pW0NIMl1bQ0BIXShbT0hdKVtDQEhdKFtDSDJdW0NIMl1bQ0gyXVtDQEBIXTRbQ0gyXVtDQEhdNFtDSDNdKU9DKD1PKVtDSDJdQyg9TlxbQ0gyXU9GKVxbTkhdW0NIMl1bQ0gyXVtDSDJdW0NIM10=

>  <s_glide_docking_method>  (1) 
confgen

>  <s_i_glide_gridfile>  (1) 
gpcr_drd2_6luq_protein_autoprepared_prepared

>  <s_lp_Force_Field>  (1) 
S-OPLS

>  <s_lp_Variant>  (1) 
DiffSBDD_86-3

>  <s_m_source_file>  (1) 
generated_generic_title2_ligand_DiffSBDD_2026-06-23_prepared.sdf

>  <GenAI_Model>  (1) 
DiffSBDD

>  <Protein>  (1) 
generic_title2

$$$$
DiffSBDD_90
     RDKit          3D

  0  0  0  0  0  0  0  0  0  0999 V3000
M  V30 BEGIN CTAB
M  V30 COUNTS 80 84 0 0 1
M  V30 BEGIN ATOM
M  V30 1 C 10.604867 5.483540 -19.461931 0
M  V30 2 C 10.332512 4.686158 -18.171848 0 CFG=1
M  V30 3 C 7.691759 5.359470 -15.749065 0
M  V30 4 C 14.237899 3.948650 -16.472990 0 CFG=2
M  V30 5 C 7.867165 5.589513 -17.916452 0
M  V30 6 C 7.049543 5.435733 -14.458399 0 CFG=2
M  V30 7 C 12.645048 2.312898 -19.582762 0 CFG=2
M  V30 8 O 12.912694 5.102361 -20.148178 0
M  V30 9 C 11.596980 4.606853 -20.251370 0 CFG=1
M  V30 10 C 13.402726 6.320686 -15.979924 0
M  V30 11 O 17.996642 6.199697 -17.623969 0
M  V30 12 C 9.068357 5.067960 -17.463310 0
M  V30 13 C 9.320033 2.296844 -18.918740 0 CFG=2
M  V30 14 O 17.340864 4.789123 -16.009995 0 CHG=-1
M  V30 15 O 15.327883 3.081909 -16.240843 0
M  V30 16 C 13.814085 2.580013 -18.565225 0 CFG=2
M  V30 17 N 13.618918 3.820962 -17.805200 0
M  V30 18 N 11.520658 3.272956 -19.647567 0
M  V30 19 C 15.860026 6.908150 -19.373055 0
M  V30 20 C 15.181300 2.601394 -19.293367 0
M  V30 21 O 8.051827 2.497735 -18.329006 0
M  V30 22 O 15.536227 1.308761 -19.744895 0
M  V30 23 O 10.575298 -0.410302 -17.983900 0
M  V30 24 C 10.307698 1.956465 -17.829299 0 CFG=1
M  V30 25 C 17.138789 5.625165 -16.920000 0
M  V30 26 C 12.075234 0.896973 -19.347757 0
M  V30 27 N 7.084667 5.741208 -16.806196 0
M  V30 28 O 16.525188 6.065170 -19.978428 0
M  V30 29 C 5.725414 6.131499 -15.040241 0
M  V30 30 N 8.906225 4.940007 -16.096005 0 CHG=1
M  V30 31 C 14.641572 5.415686 -16.165014 0 CFG=2
M  V30 32 O 7.170547 4.997894 -11.692419 0
M  V30 33 O 7.767369 6.238569 -13.532233 0
M  V30 34 C 7.201849 6.266469 -12.260747 0
M  V30 35 C 15.653952 8.295815 -19.968282 0
M  V30 36 C 15.650706 5.992324 -17.184685 0
M  V30 37 C 11.287023 0.807224 -18.020446 0 CFG=2
M  V30 38 C 6.625058 5.006494 -10.385938 0
M  V30 39 N 15.226691 6.737654 -18.152515 0
M  V30 40 C 5.763410 6.244727 -16.643558 0
M  V30 41 C 10.490226 3.238840 -18.625654 0 CFG=1
M  V30 42 H 9.689946 5.568286 -20.048904 0
M  V30 43 H 10.969190 6.494322 -19.270277 0
M  V30 44 H 11.145526 4.889163 -17.477750 0
M  V30 45 H 13.493681 3.647163 -15.740623 0
M  V30 46 H 7.531954 5.856427 -18.908178 0
M  V30 47 H 6.882253 4.410176 -14.124473 0
M  V30 48 H 13.083652 2.295897 -20.581183 0
M  V30 49 H 13.317005 4.750416 -19.359507 0
M  V30 50 H 11.326190 4.567927 -21.307152 0
M  V30 51 H 13.695583 7.332225 -15.701399 0
M  V30 52 H 12.810492 6.395960 -16.891756 0
M  V30 53 H 12.755035 5.947242 -15.186687 0
M  V30 54 H 9.296754 1.700633 -19.829238 0
M  V30 55 H 16.092765 3.625273 -16.033238 0
M  V30 56 H 13.846185 1.756943 -17.851504 0
M  V30 57 H 12.618336 3.936586 -17.686461 0
M  V30 58 H 15.981909 2.952494 -18.646914 0
M  V30 59 H 15.162245 3.290827 -20.138591 0
M  V30 60 H 7.617869 1.659028 -18.268425 0
M  V30 61 H 14.976007 1.071584 -20.469008 0
M  V30 62 H 10.132918 -0.492598 -17.152630 0
M  V30 63 H 9.960331 2.072576 -16.804016 0
M  V30 64 H 11.423117 0.636192 -20.182506 0
M  V30 65 H 12.873828 0.153793 -19.357331 0
M  V30 66 H 4.843043 5.590141 -14.704740 0
M  V30 67 H 5.634581 7.137779 -14.629004 0
M  V30 68 H 15.117879 5.423551 -15.185103 0
M  V30 69 H 7.810349 6.926319 -11.638231 0
M  V30 70 H 6.194705 6.685691 -12.306239 0
M  V30 71 H 14.594853 8.554884 -19.979407 0
M  V30 72 H 16.186442 9.039803 -19.376357 0
M  V30 73 H 16.027477 8.336078 -20.990979 0
M  V30 74 H 11.984688 0.815341 -17.185312 0
M  V30 75 H 6.572444 3.990866 -9.996299 0
M  V30 76 H 7.245065 5.585433 -9.700725 0
M  V30 77 H 5.616103 5.421139 -10.384019 0
M  V30 78 H 5.706567 7.269382 -17.013520 0
M  V30 79 H 5.056873 5.592081 -17.156511 0
M  V30 80 H 9.603993 4.588937 -15.450992 0
M  V30 END ATOM
M  V30 BEGIN BOND
M  V30 1 1 2 1
M  V30 2 1 6 3
M  V30 3 1 9 1
M  V30 4 1 9 8
M  V30 5 1 12 2
M  V30 6 2 12 5
M  V30 7 1 15 4
M  V30 8 1 16 7
M  V30 9 1 17 4
M  V30 10 1 17 16
M  V30 11 1 18 7
M  V30 12 1 18 9
M  V30 13 1 20 16
M  V30 14 1 21 13
M  V30 15 1 22 20
M  V30 16 1 24 13
M  V30 17 2 25 11
M  V30 18 1 25 14
M  V30 19 1 26 7
M  V30 20 1 27 3
M  V30 21 1 27 5
M  V30 22 2 28 19
M  V30 23 1 29 6
M  V30 24 2 30 3
M  V30 25 1 30 12
M  V30 26 1 31 4
M  V30 27 1 31 10
M  V30 28 1 33 6
M  V30 29 1 34 32
M  V30 30 1 34 33
M  V30 31 1 35 19
M  V30 32 1 36 25
M  V30 33 1 36 31
M  V30 34 1 37 23
M  V30 35 1 37 24
M  V30 36 1 37 26
M  V30 37 1 38 32
M  V30 38 1 39 19
M  V30 39 2 39 36
M  V30 40 1 40 27
M  V30 41 1 40 29
M  V30 42 1 41 2
M  V30 43 1 41 13
M  V30 44 1 41 18 CFG=3
M  V30 45 1 41 24
M  V30 46 1 42 1
M  V30 47 1 43 1
M  V30 48 1 2 44 CFG=1
M  V30 49 1 4 45 CFG=1
M  V30 50 1 46 5
M  V30 51 1 6 47 CFG=1
M  V30 52 1 7 48 CFG=3
M  V30 53 1 49 8
M  V30 54 1 9 50 CFG=3
M  V30 55 1 51 10
M  V30 56 1 52 10
M  V30 57 1 53 10
M  V30 58 1 13 54 CFG=3
M  V30 59 1 55 15
M  V30 60 1 16 56 CFG=1
M  V30 61 1 57 17
M  V30 62 1 58 20
M  V30 63 1 59 20
M  V30 64 1 60 21
M  V30 65 1 61 22
M  V30 66 1 62 23
M  V30 67 1 24 63 CFG=1
M  V30 68 1 64 26
M  V30 69 1 65 26
M  V30 70 1 66 29
M  V30 71 1 67 29
M  V30 72 1 31 68 CFG=1
M  V30 73 1 69 34
M  V30 74 1 70 34
M  V30 75 1 71 35
M  V30 76 1 72 35
M  V30 77 1 73 35
M  V30 78 1 37 74 CFG=1
M  V30 79 1 75 38
M  V30 80 1 76 38
M  V30 81 1 77 38
M  V30 82 1 78 40
M  V30 83 1 79 40
M  V30 84 1 80 30
M  V30 END BOND
M  V30 END CTAB
M  END
>  <i_epik_Tot_Q>  (1) 
0

>  <i_epik_Tot_abs_Q>  (1) 
2

>  <i_i_glide_confnum>  (1) 
2952

>  <i_i_glide_lignum>  (1) 
173

>  <i_i_glide_posenum>  (1) 
387

>  <i_i_glide_rotatable_bonds>  (1) 
17

>  <i_lp_mmshare_version>  (1) 
72125

>  <i_m_source_file_index>  (1) 
91

>  <i_f3d_flags>  (1) 
0

>  <num_sample>  (1) 
100

>  <b_lp_Chiralities_Consistent>  (1) 
1

>  <r_epik_Charging_Adjusted_Penalty>  (1) 
1.2730775069092737

>  <r_epik_Ionization_Penalty>  (1) 
0.33079184029548347

>  <r_epik_Ionization_Penalty_Charging>  (1) 
4.3976256739559524e-06

>  <r_epik_Ionization_Penalty_Neutral>  (1) 
0.33078744266980953

>  <r_epik_State_Penalty>  (1) 
1.2730731092835996

>  <r_glide_ring_energy>  (1) 
0

>  <r_i_docking_score>  (1) 
-2.6728487739212716

>  <r_i_glide_ecoul>  (1) 
-5.1876628111752705

>  <r_i_glide_eff_state_penalty>  (1) 
1.2730731092835996

>  <r_i_glide_einternal>  (1) 
9.1401786859220095

>  <r_i_glide_emodel>  (1) 
-42.309134969203093

>  <r_i_glide_emodel_strain>  (1) 
0.55381161177149352

>  <r_i_glide_energy>  (1) 
-37.678013739594405

>  <r_i_glide_erotb>  (1) 
0.57888693115673628

>  <r_i_glide_esite>  (1) 
-0.058741472739921675

>  <r_i_glide_evdw>  (1) 
-32.490350928419133

>  <r_i_glide_gscore>  (1) 
-3.9459218832048712

>  <r_i_glide_gscore_strain>  (1) 
0

>  <r_i_glide_hbond>  (1) 
-0.13950383803430305

>  <r_i_glide_ligand_efficiency>  (1) 
-0.065191433510274913

>  <r_i_glide_ligand_efficiency_ln>  (1) 
-0.56705376222031678

>  <r_i_glide_ligand_efficiency_sa>  (1) 
-0.22479422495539444

>  <r_i_glide_lipo>  (1) 
-1.1572979735794913

>  <r_i_glide_metal>  (1) 
-0

>  <r_i_glide_rewards>  (1) 
-0.76659856191064424

>  <r_lp_Energy>  (1) 
68.250592999999995

>  <s_epik_Chemistry_Notes>  (1) 
This compound has an imine and may undergo hydrolysis. This compound contains an acetal/aminal-like group ( X-CH(R)-Y where X, Y are N, S, or O) that may be acid/base labile, releasing an aldehyde.

>  <s_epik_cmdline>  (1) 
J2VwaWtfcHl0aG9uJywgJy1waHQnLCAnMS4wJywgJy1waCcsICc3LjQnLCAnLXRuJywgJzgnLCAnLW1hJywgJzUwMCcsICctaW1hZScsICc8aW5maWxlLm1hZT4nLCAnLW9tYWUnLCAnPG91dGZpbGUubWFlPic=

>  <s_epik_input>  (1) 
W0NIM11PW0NIMl1PW0NASF0xW0NIMl1bQ0gyXW4oYzEyKVtjSF1jKG4yKVtDQEBIXTNbQ0gyXVtDQEBIXShbT0hdKU4oW0NAQF0zNDUpW0NASF0oW0NIMl1bQ0BIXShbT0hdKVtDQEBIXTVbQ0BIXTRbT0hdKVtDQEBIXShbQ0gyXVtPSF0pW05IXVtDQEBIXShbT0hdKVtDQEhdKFtDSDNdKUMoXEMoPU8pW09IXSk9TlxDKD1PKVtDSDNd

>  <s_glide_docking_method>  (1) 
confgen

>  <s_i_glide_gridfile>  (1) 
gpcr_drd2_6luq_protein_autoprepared_prepared

>  <s_lp_Force_Field>  (1) 
S-OPLS

>  <s_lp_Variant>  (1) 
DiffSBDD_90-8

>  <s_m_source_file>  (1) 
generated_generic_title2_ligand_DiffSBDD_2026-06-23_prepared.sdf

>  <GenAI_Model>  (1) 
DiffSBDD

>  <Protein>  (1) 
generic_title2

$$$$
DiffSBDD_43
     RDKit          3D

  0  0  0  0  0  0  0  0  0  0999 V3000
M  V30 BEGIN CTAB
M  V30 COUNTS 73 80 0 0 1
M  V30 BEGIN ATOM
M  V30 1 C 8.468718 1.787567 -18.579684 0 CFG=1
M  V30 2 C 7.922938 1.459716 -17.202537 0 CFG=2
M  V30 3 C 5.996365 1.617499 -18.722658 0 CFG=1
M  V30 4 C 6.140512 -3.214923 -20.282263 0
M  V30 5 C 10.552444 5.121278 -18.220290 0
M  V30 6 C 11.810603 4.532133 -17.594647 0
M  V30 7 C 7.241484 2.203457 -19.427503 0
M  V30 8 S 17.447278 5.872788 -16.814909 0
M  V30 9 C 14.746347 6.573106 -17.302283 0 CFG=1
M  V30 10 C 16.190587 6.784729 -17.731112 0 CFG=1
M  V30 11 C 5.391703 -2.546109 -17.826556 0
M  V30 12 C 14.081159 8.541333 -18.633962 0
M  V30 13 C 5.361099 0.411491 -19.455192 0
M  V30 14 C 13.811073 7.056186 -18.388649 0 CFG=2
M  V30 15 C 16.720808 4.555963 -19.159901 0
M  V30 16 C 6.471135 -1.672192 -18.425735 0 CFG=1
M  V30 17 N 12.759618 5.459393 -17.143861 0
M  V30 18 C 6.400254 -3.121442 -18.798240 0 CFG=2
M  V30 19 O 16.433156 8.168981 -17.985027 0
M  V30 20 C 11.973055 3.204755 -17.437989 0
M  V30 21 C 5.663701 -1.815463 -20.704259 0
M  V30 22 C 11.687797 1.039057 -18.676817 0
M  V30 23 C 15.575148 8.724202 -18.990559 0
M  V30 24 C 14.180036 5.202668 -16.986794 0
M  V30 25 C 9.701727 2.745806 -18.608809 0 CFG=1
M  V30 26 C 9.375740 4.156499 -18.065778 0
M  V30 27 C 17.087360 5.916226 -18.601170 0 CFG=2
M  V30 28 C 6.429896 1.328129 -17.299514 0 CFG=2
M  V30 29 C 7.038827 2.388828 -16.408522 0
M  V30 30 F 10.899905 -0.009772 -18.896060 0
M  V30 31 O 12.543683 6.692965 -17.858484 0
M  V30 32 F 12.118116 1.507431 -19.848422 0
M  V30 33 F 12.739536 0.596696 -17.985050 0
M  V30 34 C 6.252550 -0.833326 -19.670768 0 CFG=1
M  V30 35 C 10.956622 2.151210 -17.882625 0 CFG=2
M  V30 36 H 8.773726 0.833655 -18.999333 0
M  V30 37 H 8.462235 0.696672 -16.644219 0
M  V30 38 H 5.230834 2.392546 -18.678576 0
M  V30 39 H 5.408522 -3.991701 -20.504581 0
M  V30 40 H 7.073924 -3.467445 -20.786237 0
M  V30 41 H 10.275537 6.066640 -17.752087 0
M  V30 42 H 10.741013 5.318182 -19.276383 0
M  V30 43 H 7.127410 3.283901 -19.468085 0
M  V30 44 H 7.333057 1.872526 -20.462623 0
M  V30 45 H 14.575412 7.190218 -16.417733 0
M  V30 46 H 4.368875 -2.407299 -18.171613 0
M  V30 47 H 5.491975 -2.824581 -16.779966 0
M  V30 48 H 13.442377 8.921058 -19.431614 0
M  V30 49 H 13.845428 9.115612 -17.737614 0
M  V30 50 H 4.449336 0.114384 -18.934703 0
M  V30 51 H 5.027292 0.763396 -20.432442 0
M  V30 52 H 13.975743 6.490875 -19.308459 0
M  V30 53 H 15.942762 4.658999 -19.916500 0
M  V30 54 H 17.595727 4.103697 -19.627481 0
M  V30 55 H 16.375728 3.875642 -18.385019 0
M  V30 56 H 7.281664 -1.362114 -17.769466 0
M  V30 57 H 7.147350 -3.800374 -18.391238 0
M  V30 58 H 12.869846 2.832489 -16.964867 0
M  V30 59 H 4.575410 -1.786882 -20.659700 0
M  V30 60 H 5.947993 -1.566349 -21.727015 0
M  V30 61 H 15.794889 8.253063 -19.949716 0
M  V30 62 H 15.804808 9.784257 -19.101271 0
M  V30 63 H 14.425625 4.866850 -15.978799 0
M  V30 64 H 14.479114 4.446411 -17.706770 0
M  V30 65 H 9.969099 2.878879 -19.657887 0
M  V30 66 H 9.127724 4.094449 -17.006463 0
M  V30 67 H 8.514230 4.598180 -18.561133 0
M  V30 68 H 17.895176 6.424401 -19.124792 0
M  V30 69 H 5.927090 0.509536 -16.787981 0
M  V30 70 H 6.975411 3.425992 -16.727545 0
M  V30 71 H 6.986553 2.230835 -15.333234 0
M  V30 72 H 7.232790 -0.532188 -20.038003 0
M  V30 73 H 10.615485 1.707584 -16.949203 0
M  V30 END ATOM
M  V30 BEGIN BOND
M  V30 1 1 2 1
M  V30 2 1 6 5
M  V30 3 1 7 1
M  V30 4 1 7 3
M  V30 5 1 10 8
M  V30 6 1 10 9
M  V30 7 1 13 3
M  V30 8 1 14 9
M  V30 9 1 14 12
M  V30 10 1 16 11
M  V30 11 1 17 6
M  V30 12 1 18 4
M  V30 13 1 18 11
M  V30 14 1 18 16
M  V30 15 1 10 19 CFG=3
M  V30 16 2 20 6
M  V30 17 1 21 4
M  V30 18 1 23 12
M  V30 19 1 23 19
M  V30 20 1 24 9
M  V30 21 1 24 17
M  V30 22 1 25 1
M  V30 23 1 26 5
M  V30 24 1 26 25
M  V30 25 1 27 8
M  V30 26 1 27 10
M  V30 27 1 27 15
M  V30 28 1 28 2
M  V30 29 1 28 3
M  V30 30 1 29 2
M  V30 31 1 29 28
M  V30 32 1 30 22
M  V30 33 1 31 14
M  V30 34 1 31 17
M  V30 35 1 32 22
M  V30 36 1 33 22
M  V30 37 1 34 13
M  V30 38 1 34 16
M  V30 39 1 34 21
M  V30 40 1 35 20
M  V30 41 1 35 22
M  V30 42 1 35 25
M  V30 43 1 1 36 CFG=3
M  V30 44 1 2 37 CFG=1
M  V30 45 1 3 38 CFG=1
M  V30 46 1 39 4
M  V30 47 1 40 4
M  V30 48 1 41 5
M  V30 49 1 42 5
M  V30 50 1 43 7
M  V30 51 1 44 7
M  V30 52 1 9 45 CFG=1
M  V30 53 1 46 11
M  V30 54 1 47 11
M  V30 55 1 48 12
M  V30 56 1 49 12
M  V30 57 1 50 13
M  V30 58 1 51 13
M  V30 59 1 14 52 CFG=3
M  V30 60 1 53 15
M  V30 61 1 54 15
M  V30 62 1 55 15
M  V30 63 1 16 56 CFG=1
M  V30 64 1 18 57 CFG=1
M  V30 65 1 58 20
M  V30 66 1 59 21
M  V30 67 1 60 21
M  V30 68 1 61 23
M  V30 69 1 62 23
M  V30 70 1 63 24
M  V30 71 1 64 24
M  V30 72 1 25 65 CFG=3
M  V30 73 1 66 26
M  V30 74 1 67 26
M  V30 75 1 27 68 CFG=3
M  V30 76 1 28 69 CFG=1
M  V30 77 1 70 29
M  V30 78 1 71 29
M  V30 79 1 34 72 CFG=3
M  V30 80 1 35 73 CFG=1
M  V30 END BOND
M  V30 END CTAB
M  END
>  <i_epik_Tot_Q>  (1) 
0

>  <i_epik_Tot_abs_Q>  (1) 
0

>  <i_i_glide_confnum>  (1) 
371

>  <i_i_glide_lignum>  (1) 
69

>  <i_i_glide_posenum>  (1) 
40

>  <i_i_glide_rotatable_bonds>  (1) 
5

>  <i_lp_mmshare_version>  (1) 
72125

>  <i_m_source_file_index>  (1) 
44

>  <i_f3d_flags>  (1) 
0

>  <num_sample>  (1) 
100

>  <b_lp_Chiralities_Consistent>  (1) 
1

>  <r_epik_Charging_Adjusted_Penalty>  (1) 
0

>  <r_epik_Ionization_Penalty>  (1) 
0.0012510015798316548

>  <r_epik_Ionization_Penalty_Charging>  (1) 
0

>  <r_epik_Ionization_Penalty_Neutral>  (1) 
0.0012510015798316548

>  <r_epik_State_Penalty>  (1) 
-0

>  <r_glide_ring_energy>  (1) 
0

>  <r_i_docking_score>  (1) 
-2.6523157007903011

>  <r_i_glide_ecoul>  (1) 
-0.5020161402120995

>  <r_i_glide_eff_state_penalty>  (1) 
-0

>  <r_i_glide_einternal>  (1) 
7.6747578215139391

>  <r_i_glide_emodel>  (1) 
-26.852549865814332

>  <r_i_glide_emodel_strain>  (1) 
0

>  <r_i_glide_energy>  (1) 
-26.795847657526139

>  <r_i_glide_erotb>  (1) 
0.31537474361301371

>  <r_i_glide_esite>  (1) 
0

>  <r_i_glide_evdw>  (1) 
-26.29383151731404

>  <r_i_glide_gscore>  (1) 
-2.6523157007903011

>  <r_i_glide_gscore_strain>  (1) 
0

>  <r_i_glide_hbond>  (1) 
0

>  <r_i_glide_ligand_efficiency>  (1) 
-0.075780448594008606

>  <r_i_glide_ligand_efficiency_ln>  (1) 
-0.58224216129888917

>  <r_i_glide_ligand_efficiency_sa>  (1) 
-0.24788287236683987

>  <r_i_glide_lipo>  (1) 
-1.2344062556607995

>  <r_i_glide_metal>  (1) 
-0

>  <r_i_glide_rewards>  (1) 
-0.34329019184499798

>  <r_lp_Energy>  (1) 
38.603110000000001

>  <r_lp_tautomer_probability>  (1) 
1

>  <s_epik_Chemistry_Notes>  (1) 
This compound has a N-S or N-O group and may undergo hydrolysis at high or low pH.

>  <s_epik_cmdline>  (1) 
J2VwaWtfcHl0aG9uJywgJy1waHQnLCAnMS4wJywgJy1waCcsICc3LjQnLCAnLXRuJywgJzgnLCAnLW1hJywgJzUwMCcsICctaW1hZScsICc8aW5maWxlLm1hZT4nLCAnLW9tYWUnLCAnPG91dGZpbGUubWFlPic=

>  <s_epik_input>  (1) 
W0NIMl0xW0NASF0oW0NASF0xMilbQ0gyXVtDSDJdW0NASF0yW0NIMl1bQ0BASF0oW0NAQEhdKFtDQEBIXTM0KVtDSDJdNClbQ0gyXVtDQEhdM1tDQEBIXShbQ0gyXVtDSDJdNSlbQ0BASF0oQyhGKShGKUYpW0NIXT1DNU4oW0NIMl02KU9bQ0BASF0oW0NIMl1bQ0gyXU83KVtDQEBIXTZbQ0BAXTc4U1tDQEhdOFtDSDNd

>  <s_glide_docking_method>  (1) 
confgen

>  <s_i_glide_gridfile>  (1) 
gpcr_drd2_6luq_protein_autoprepared_prepared

>  <s_lp_Force_Field>  (1) 
S-OPLS

>  <s_lp_Variant>  (1) 
DiffSBDD_43-1

>  <s_m_source_file>  (1) 
generated_generic_title2_ligand_DiffSBDD_2026-06-23_prepared.sdf

>  <GenAI_Model>  (1) 
DiffSBDD

>  <Protein>  (1) 
generic_title2

$$$$
DiffSBDD_90
     RDKit          3D

  0  0  0  0  0  0  0  0  0  0999 V3000
M  V30 BEGIN CTAB
M  V30 COUNTS 80 84 0 0 1
M  V30 BEGIN ATOM
M  V30 1 C 7.335129 5.575291 -16.042524 0
M  V30 2 C 8.237093 5.012551 -14.929146 0 CFG=1
M  V30 3 C 9.420188 6.756124 -11.950179 0
M  V30 4 C 11.427814 3.202489 -17.790449 0 CFG=2
M  V30 5 C 7.775424 7.070873 -13.360076 0
M  V30 6 C 10.268922 7.058400 -10.811320 0 CFG=2
M  V30 7 C 7.876747 1.910639 -16.614544 0 CFG=2
M  V30 8 O 8.041981 4.439868 -18.048683 0
M  V30 9 C 7.136501 4.387498 -16.975737 0 CFG=1
M  V30 10 C 11.349815 5.778616 -17.336551 0
M  V30 11 O 14.175609 2.731426 -16.394241 0
M  V30 12 C 8.433913 5.921465 -13.756814 0
M  V30 13 C 6.635602 3.263517 -13.731417 0 CFG=2
M  V30 14 O 15.775370 3.632642 -17.674353 0 CHG=-1
M  V30 15 O 11.147732 3.438867 -19.046688 0 CHG=-1
M  V30 16 C 9.355524 1.791357 -17.154638 0 CFG=2
M  V30 17 N 10.088009 3.085593 -17.185033 0 CHG=1
M  V30 18 N 7.376399 3.206194 -16.129604 0
M  V30 19 C 15.154110 6.264832 -18.521919 0
M  V30 20 C 9.386613 1.071535 -18.524583 0
M  V30 21 O 6.447866 4.123117 -12.626177 0
M  V30 22 O 8.784013 -0.204630 -18.443100 0
M  V30 23 O 7.362097 0.390016 -13.148514 0
M  V30 24 C 7.983760 2.589501 -13.702261 0 CFG=1
M  V30 25 C 14.619367 3.573290 -17.201720 0
M  V30 26 C 7.549113 0.829509 -15.538813 0
M  V30 27 N 8.458174 7.532590 -12.269495 0
M  V30 28 O 15.972006 6.391100 -17.607812 0
M  V30 29 C 9.406745 8.334735 -10.369486 0
M  V30 30 N 9.449553 5.752441 -12.826135 0 CHG=1
M  V30 31 C 12.156878 4.456315 -17.188928 0 CFG=2
M  V30 32 O 12.053851 7.629025 -8.914137 0
M  V30 33 O 11.621256 7.342820 -11.162156 0
M  V30 34 C 12.323309 8.074844 -10.202572 0
M  V30 35 C 15.460959 6.820405 -19.907431 0
M  V30 36 C 13.614126 4.649497 -17.678626 0
M  V30 37 C 8.081650 1.130716 -14.103593 0 CFG=2
M  V30 38 C 12.382874 8.572250 -7.911828 0
M  V30 39 N 13.910016 5.656314 -18.438956 0
M  V30 40 C 8.293837 8.700833 -11.486840 0
M  V30 41 C 7.688285 3.622136 -14.770167 0 CFG=1
M  V30 42 H 6.373439 5.894256 -15.637261 0
M  V30 43 H 7.775355 6.390227 -16.586269 0
M  V30 44 H 9.235028 4.876860 -15.335690 0
M  V30 45 H 11.964437 2.308512 -17.473326 0
M  V30 46 H 6.930605 7.590228 -13.783935 0
M  V30 47 H 10.175526 6.239657 -10.094843 0
M  V30 48 H 7.240160 1.670093 -17.467268 0
M  V30 49 H 7.567072 4.605425 -18.851744 0
M  V30 50 H 6.175433 4.390146 -17.465414 0
M  V30 51 H 11.851594 6.600567 -16.824300 0
M  V30 52 H 11.233279 6.061347 -18.383295 0
M  V30 53 H 10.350234 5.715941 -16.923224 0
M  V30 54 H 5.775271 2.655760 -13.983923 0
M  V30 55 H 9.904398 1.190244 -16.451869 0
M  V30 56 H 9.492711 3.730705 -17.704776 0
M  V30 57 H 10.408201 0.917450 -18.872599 0
M  V30 58 H 8.876634 1.671740 -19.281608 0
M  V30 59 H 7.145982 3.992717 -12.004690 0
M  V30 60 H 8.705707 -0.559644 -19.316323 0
M  V30 61 H 7.805412 0.458409 -12.315617 0
M  V30 62 H 8.652519 2.877934 -12.891667 0
M  V30 63 H 6.461397 0.744638 -15.493014 0
M  V30 64 H 7.895220 -0.154560 -15.860950 0
M  V30 65 H 8.975413 8.009519 -9.432271 0
M  V30 66 H 9.958316 9.189920 -9.987007 0
M  V30 67 H 12.221329 4.289779 -16.112538 0
M  V30 68 H 13.393865 7.990230 -10.382916 0
M  V30 69 H 12.078984 9.131574 -10.323331 0
M  V30 70 H 14.779652 7.638025 -20.144887 0
M  V30 71 H 16.484959 7.193867 -19.966700 0
M  V30 72 H 15.338227 6.039434 -20.655895 0
M  V30 73 H 9.109646 0.812497 -13.984598 0
M  V30 74 H 12.163453 8.152867 -6.931084 0
M  V30 75 H 13.443354 8.821788 -7.942348 0
M  V30 76 H 11.792367 9.483892 -8.018183 0
M  V30 77 H 8.594272 9.534378 -12.116987 0
M  V30 78 H 7.258365 8.814212 -11.185231 0
M  V30 79 H 10.131229 5.000813 -12.825858 0
M  V30 80 H 10.155150 3.420549 -16.240329 0
M  V30 END ATOM
M  V30 BEGIN BOND
M  V30 1 1 2 1
M  V30 2 1 6 3
M  V30 3 1 9 1
M  V30 4 1 9 8
M  V30 5 1 12 2
M  V30 6 2 12 5
M  V30 7 1 15 4
M  V30 8 1 16 7
M  V30 9 1 17 4
M  V30 10 1 17 16
M  V30 11 1 18 7
M  V30 12 1 18 9
M  V30 13 1 20 16
M  V30 14 1 21 13
M  V30 15 1 22 20
M  V30 16 1 24 13
M  V30 17 2 25 11
M  V30 18 1 25 14
M  V30 19 1 26 7
M  V30 20 1 27 3
M  V30 21 1 27 5
M  V30 22 2 28 19
M  V30 23 1 29 6
M  V30 24 2 30 3
M  V30 25 1 30 12
M  V30 26 1 31 4
M  V30 27 1 31 10
M  V30 28 1 33 6
M  V30 29 1 34 32
M  V30 30 1 34 33
M  V30 31 1 35 19
M  V30 32 1 36 25
M  V30 33 1 36 31
M  V30 34 1 37 23
M  V30 35 1 37 24
M  V30 36 1 37 26
M  V30 37 1 38 32
M  V30 38 1 39 19
M  V30 39 2 39 36
M  V30 40 1 40 27
M  V30 41 1 40 29
M  V30 42 1 41 2
M  V30 43 1 41 13
M  V30 44 1 41 18 CFG=3
M  V30 45 1 41 24
M  V30 46 1 42 1
M  V30 47 1 43 1
M  V30 48 1 2 44 CFG=3
M  V30 49 1 4 45 CFG=3
M  V30 50 1 46 5
M  V30 51 1 6 47 CFG=1
M  V30 52 1 7 48 CFG=3
M  V30 53 1 49 8
M  V30 54 1 9 50 CFG=3
M  V30 55 1 51 10
M  V30 56 1 52 10
M  V30 57 1 53 10
M  V30 58 1 13 54 CFG=3
M  V30 59 1 16 55 CFG=1
M  V30 60 1 56 17
M  V30 61 1 57 20
M  V30 62 1 58 20
M  V30 63 1 59 21
M  V30 64 1 60 22
M  V30 65 1 61 23
M  V30 66 1 24 62 CFG=1
M  V30 67 1 63 26
M  V30 68 1 64 26
M  V30 69 1 65 29
M  V30 70 1 66 29
M  V30 71 1 31 67 CFG=1
M  V30 72 1 68 34
M  V30 73 1 69 34
M  V30 74 1 70 35
M  V30 75 1 71 35
M  V30 76 1 72 35
M  V30 77 1 37 73 CFG=3
M  V30 78 1 74 38
M  V30 79 1 75 38
M  V30 80 1 76 38
M  V30 81 1 77 40
M  V30 82 1 78 40
M  V30 83 1 79 30
M  V30 84 1 80 17
M  V30 END BOND
M  V30 END CTAB
M  END
>  <i_epik_Tot_Q>  (1) 
0

>  <i_epik_Tot_abs_Q>  (1) 
4

>  <i_i_glide_confnum>  (1) 
2468

>  <i_i_glide_lignum>  (1) 
171

>  <i_i_glide_posenum>  (1) 
40

>  <i_i_glide_rotatable_bonds>  (1) 
16

>  <i_lp_mmshare_version>  (1) 
72125

>  <i_m_source_file_index>  (1) 
91

>  <i_f3d_flags>  (1) 
0

>  <num_sample>  (1) 
100

>  <b_lp_Chiralities_Consistent>  (1) 
1

>  <r_epik_Charging_Adjusted_Penalty>  (1) 
1.4758035429533554

>  <r_epik_Ionization_Penalty>  (1) 
0.33648449588267881

>  <r_epik_Ionization_Penalty_Charging>  (1) 
0.24231300703988756

>  <r_epik_Ionization_Penalty_Neutral>  (1) 
0.094171488842791265

>  <r_epik_State_Penalty>  (1) 
1.2334905359134678

>  <r_glide_ring_energy>  (1) 
0

>  <r_i_docking_score>  (1) 
-2.6414377896971848

>  <r_i_glide_ecoul>  (1) 
-6.1146257443480616

>  <r_i_glide_eff_state_penalty>  (1) 
1.2334905359134678

>  <r_i_glide_einternal>  (1) 
19.013983750979918

>  <r_i_glide_emodel>  (1) 
-29.294727848296411

>  <r_i_glide_emodel_strain>  (1) 
3.7606313464797836

>  <r_i_glide_energy>  (1) 
-31.302676594036498

>  <r_i_glide_erotb>  (1) 
0.57888693115673628

>  <r_i_glide_esite>  (1) 
-0.071472766860102219

>  <r_i_glide_evdw>  (1) 
-25.188050849688437

>  <r_i_glide_gscore>  (1) 
-3.8749283256106528

>  <r_i_glide_gscore_strain>  (1) 
0

>  <r_i_glide_hbond>  (1) 
-0.09095232337862591

>  <r_i_glide_ligand_efficiency>  (1) 
-0.064425311943833774

>  <r_i_glide_ligand_efficiency_ln>  (1) 
-0.56038981738621363

>  <r_i_glide_ligand_efficiency_sa>  (1) 
-0.22215247136176308

>  <r_i_glide_lipo>  (1) 
-1.7057064576921264

>  <r_i_glide_metal>  (1) 
-0

>  <r_i_glide_rewards>  (1) 
-0.40908730469990318

>  <r_lp_Energy>  (1) 
73.410639000000003

>  <s_epik_Chemistry_Notes>  (1) 
This compound has an imine and may undergo hydrolysis. This compound contains an acetal/aminal-like group ( X-CH(R)-Y where X, Y are N, S, or O) that may be acid/base labile, releasing an aldehyde.

>  <s_epik_cmdline>  (1) 
J2VwaWtfcHl0aG9uJywgJy1waHQnLCAnMS4wJywgJy1waCcsICc3LjQnLCAnLXRuJywgJzgnLCAnLW1hJywgJzUwMCcsICctaW1hZScsICc8aW5maWxlLm1hZT4nLCAnLW9tYWUnLCAnPG91dGZpbGUubWFlPic=

>  <s_epik_input>  (1) 
W0NIM11PW0NIMl1PW0NASF0xW0NIMl1bQ0gyXW4oYzEyKVtjSF1jKG4yKVtDQEBIXTNbQ0gyXVtDQEBIXShbT0hdKU4oW0NAQF0zNDUpW0NASF0oW0NIMl1bQ0BIXShbT0hdKVtDQEBIXTVbQ0BIXTRbT0hdKVtDQEBIXShbQ0gyXVtPSF0pW05IXVtDQEBIXShbT0hdKVtDQEhdKFtDSDNdKUMoXEMoPU8pW09IXSk9TlxDKD1PKVtDSDNd

>  <s_glide_docking_method>  (1) 
confgen

>  <s_i_glide_gridfile>  (1) 
gpcr_drd2_6luq_protein_autoprepared_prepared

>  <s_lp_Force_Field>  (1) 
S-OPLS

>  <s_lp_Variant>  (1) 
DiffSBDD_90-6

>  <s_m_source_file>  (1) 
generated_generic_title2_ligand_DiffSBDD_2026-06-23_prepared.sdf

>  <GenAI_Model>  (1) 
DiffSBDD

>  <Protein>  (1) 
generic_title2

$$$$
DiffSBDD_74
     RDKit          3D

  0  0  0  0  0  0  0  0  0  0999 V3000
M  V30 BEGIN CTAB
M  V30 COUNTS 92 99 0 0 1
M  V30 BEGIN ATOM
M  V30 1 C 16.433999 8.642118 -19.592597 0 CFG=2
M  V30 2 N 9.089081 3.172706 -21.608122 0
M  V30 3 C 7.775039 1.115057 -21.654527 0
M  V30 4 C 9.197907 4.606324 -21.660789 0
M  V30 5 F 11.521919 8.389139 -19.872307 0
M  V30 6 O 17.397998 7.397096 -17.682655 0
M  V30 7 O 13.865780 4.377658 -18.877735 0
M  V30 8 C 10.339049 2.359630 -21.605461 0 CFG=2
M  V30 9 C 5.441059 -0.764189 -19.674506 0
M  V30 10 C 16.694619 7.259598 -18.904634 0 CFG=1
M  V30 11 C 16.388983 4.813815 -20.417835 0 CFG=2
M  V30 12 C 7.794069 2.481135 -21.531563 0
M  V30 13 C 11.630112 2.400791 -17.479856 0
M  V30 14 C 14.388569 6.972132 -19.952541 0 CFG=1
M  V30 15 C 5.726533 0.437849 -20.384990 0
M  V30 16 C 12.582146 7.729197 -19.408556 0
M  V30 17 C 12.405162 6.504010 -21.707763 0 CFG=2
M  V30 18 C 14.032959 3.944170 -20.200892 0 CFG=1
M  V30 19 C 13.913977 8.383292 -19.918710 0 CFG=1
M  V30 20 O 10.498842 4.954360 -21.747262 0
M  V30 21 O 18.617294 5.441632 -21.112173 0
M  V30 22 O 16.863699 4.899313 -18.043139 0
M  V30 23 C 17.278235 5.359522 -21.557636 0 CFG=1
M  V30 24 S 10.649221 3.170588 -18.787428 0 CHG=1
M  V30 25 C 14.104453 2.450005 -20.416567 0
M  V30 26 C 17.265475 4.462524 -22.804035 0
M  V30 27 C 17.554486 9.657466 -19.343040 0
M  V30 28 N 5.203583 -1.747551 -19.114198 0
M  V30 29 C 9.024233 0.291327 -21.930291 0
M  V30 30 C 6.537127 3.275731 -21.304192 0
M  V30 31 C 14.746171 6.596025 -17.334011 0
M  V30 32 C 15.339019 6.587352 -18.770974 0 CFG=2
M  V30 33 O 8.290309 5.429682 -21.638029 0
M  V30 34 C 13.141567 5.693881 -22.792598 0
M  V30 35 C 11.529726 4.756747 -19.004826 0
M  V30 36 C 15.001825 9.257818 -19.267010 0
M  V30 37 F 12.433321 7.590204 -18.096946 0
M  V30 38 C 12.973010 6.418665 -20.226379 0 CFG=1
M  V30 39 C 5.211218 1.590425 -19.964417 0
M  V30 40 C 10.874303 6.316851 -21.858222 0
M  V30 41 C 12.858757 4.919450 -19.759761 0 CFG=1
M  V30 42 C 10.173651 1.120718 -22.463270 0
M  V30 43 O 15.060288 4.619529 -20.947290 0
M  V30 44 C 10.790528 1.968688 -20.161771 0
M  V30 45 C 6.516600 0.315013 -21.632894 0
M  V30 46 C 16.466721 5.705190 -19.149554 0 CFG=1
M  V30 47 C 5.426191 2.881033 -20.611209 0
M  V30 48 H 16.478560 8.467610 -20.668180 0
M  V30 49 H 17.551150 6.505644 -17.389881 0
M  V30 50 H 11.187149 2.850712 -22.080810 0
M  V30 51 H 16.767744 3.821721 -20.163858 0
M  V30 52 H 11.649471 3.072032 -16.623055 0
M  V30 53 H 12.660062 2.225459 -17.773475 0
M  V30 54 H 11.184989 1.451415 -17.184998 0
M  V30 55 H 14.926756 6.917549 -20.895635 0
M  V30 56 H 12.531542 7.526461 -22.053139 0
M  V30 57 H 13.764647 8.756359 -20.931217 0
M  V30 58 H 19.146635 5.814906 -21.800956 0
M  V30 59 H 16.072865 4.492496 -17.717867 0
M  V30 60 H 16.952183 6.360732 -21.838947 0
M  V30 61 H 15.142807 2.145695 -20.545891 0
M  V30 62 H 13.570502 2.172545 -21.324820 0
M  V30 63 H 13.734629 1.895988 -19.561825 0
M  V30 64 H 16.263175 4.385052 -23.225638 0
M  V30 65 H 17.605721 3.452862 -22.571580 0
M  V30 66 H 17.913808 4.861202 -23.585010 0
M  V30 67 H 17.571826 9.990261 -18.304663 0
M  V30 68 H 17.407401 10.525959 -19.985000 0
M  V30 69 H 18.531498 9.233558 -19.577432 0
M  V30 70 H 9.288588 -0.290959 -21.048276 0
M  V30 71 H 8.788687 -0.448017 -22.696725 0
M  V30 72 H 6.502536 4.274646 -21.669434 0
M  V30 73 H 13.855987 5.984813 -17.224438 0
M  V30 74 H 14.506165 7.606893 -17.015752 0
M  V30 75 H 15.444314 6.229427 -16.583552 0
M  V30 76 H 13.061338 4.619456 -22.635716 0
M  V30 77 H 14.195415 5.961057 -22.854220 0
M  V30 78 H 12.715163 5.899005 -23.775376 0
M  V30 79 H 10.797844 5.456749 -19.392653 0
M  V30 80 H 11.690088 5.135206 -17.994756 0
M  V30 81 H 14.852978 9.372942 -18.194836 0
M  V30 82 H 14.937719 10.268516 -19.672323 0
M  V30 83 H 4.575372 1.566484 -19.092496 0
M  V30 84 H 10.329726 6.912129 -21.127001 0
M  V30 85 H 10.559410 6.674438 -22.839726 0
M  V30 86 H 9.966243 1.416642 -23.493240 0
M  V30 87 H 11.091142 0.531449 -22.488150 0
M  V30 88 H 10.159198 1.168832 -19.785189 0
M  V30 89 H 11.766727 1.509128 -20.191623 0
M  V30 90 H 5.892285 0.617460 -22.475316 0
M  V30 91 H 6.735071 -0.741217 -21.796302 0
M  V30 92 H 4.646204 3.618652 -20.489753 0
M  V30 END ATOM
M  V30 BEGIN BOND
M  V30 1 1 4 2
M  V30 2 1 8 2
M  V30 3 1 10 1
M  V30 4 1 10 6 CFG=1
M  V30 5 1 12 2
M  V30 6 2 12 3
M  V30 7 1 15 9
M  V30 8 1 16 5
M  V30 9 1 18 7
M  V30 10 1 19 14
M  V30 11 1 19 16
M  V30 12 1 20 4
M  V30 13 1 23 11
M  V30 14 1 23 21
M  V30 15 1 24 13 CFG=1
M  V30 16 1 18 25 CFG=1
M  V30 17 1 26 23
M  V30 18 1 27 1
M  V30 19 3 28 9
M  V30 20 1 29 3
M  V30 21 1 30 12
M  V30 22 1 32 10
M  V30 23 1 32 14
M  V30 24 1 32 31 CFG=1
M  V30 25 2 33 4
M  V30 26 1 34 17
M  V30 27 1 35 24
M  V30 28 1 36 1
M  V30 29 1 36 19
M  V30 30 1 37 16
M  V30 31 1 38 14
M  V30 32 1 38 16 CFG=1
M  V30 33 1 38 17
M  V30 34 2 39 15
M  V30 35 1 40 17
M  V30 36 1 40 20
M  V30 37 1 41 7 CFG=1
M  V30 38 1 41 18
M  V30 39 1 41 35
M  V30 40 1 41 38
M  V30 41 1 42 8
M  V30 42 1 42 29
M  V30 43 1 43 11
M  V30 44 1 43 18
M  V30 45 1 44 8
M  V30 46 1 44 24
M  V30 47 1 45 3
M  V30 48 1 45 15
M  V30 49 1 46 10
M  V30 50 1 46 11
M  V30 51 1 46 22 CFG=1
M  V30 52 1 46 32
M  V30 53 2 47 30
M  V30 54 1 47 39
M  V30 55 1 1 48 CFG=3
M  V30 56 1 49 6
M  V30 57 1 8 50 CFG=3
M  V30 58 1 11 51 CFG=1
M  V30 59 1 52 13
M  V30 60 1 53 13
M  V30 61 1 54 13
M  V30 62 1 14 55 CFG=3
M  V30 63 1 17 56 CFG=3
M  V30 64 1 19 57 CFG=3
M  V30 65 1 58 21
M  V30 66 1 59 22
M  V30 67 1 23 60 CFG=3
M  V30 68 1 61 25
M  V30 69 1 62 25
M  V30 70 1 63 25
M  V30 71 1 64 26
M  V30 72 1 65 26
M  V30 73 1 66 26
M  V30 74 1 67 27
M  V30 75 1 68 27
M  V30 76 1 69 27
M  V30 77 1 70 29
M  V30 78 1 71 29
M  V30 79 1 72 30
M  V30 80 1 73 31
M  V30 81 1 74 31
M  V30 82 1 75 31
M  V30 83 1 76 34
M  V30 84 1 77 34
M  V30 85 1 78 34
M  V30 86 1 79 35
M  V30 87 1 80 35
M  V30 88 1 81 36
M  V30 89 1 82 36
M  V30 90 1 83 39
M  V30 91 1 84 40
M  V30 92 1 85 40
M  V30 93 1 86 42
M  V30 94 1 87 42
M  V30 95 1 88 44
M  V30 96 1 89 44
M  V30 97 1 90 45
M  V30 98 1 91 45
M  V30 99 1 92 47
M  V30 END BOND
M  V30 END CTAB
M  END
>  <i_epik_Tot_Q>  (1) 
1

>  <i_epik_Tot_abs_Q>  (1) 
1

>  <i_i_glide_confnum>  (1) 
2

>  <i_i_glide_lignum>  (1) 
122

>  <i_i_glide_posenum>  (1) 
26

>  <i_i_glide_rotatable_bonds>  (1) 
4

>  <i_lp_mmshare_version>  (1) 
72125

>  <i_m_source_file_index>  (1) 
75

>  <i_f3d_flags>  (1) 
0

>  <num_sample>  (1) 
100

>  <b_lp_Chiralities_Consistent>  (1) 
1

>  <r_epik_Charging_Adjusted_Penalty>  (1) 
0

>  <r_epik_Ionization_Penalty>  (1) 
2.279428951435475e-07

>  <r_epik_Ionization_Penalty_Charging>  (1) 
0

>  <r_epik_Ionization_Penalty_Neutral>  (1) 
2.279428951435475e-07

>  <r_epik_State_Penalty>  (1) 
-0

>  <r_glide_ring_energy>  (1) 
0

>  <r_i_docking_score>  (1) 
-2.6370857382165549

>  <r_i_glide_ecoul>  (1) 
-2.7901342623754495

>  <r_i_glide_eff_state_penalty>  (1) 
-0

>  <r_i_glide_einternal>  (1) 
1.181672682609701

>  <r_i_glide_emodel>  (1) 
-28.83829045319553

>  <r_i_glide_emodel_strain>  (1) 
0.33588475639282933

>  <r_i_glide_energy>  (1) 
-25.46788091447532

>  <r_i_glide_erotb>  (1) 
0.046727806610761473

>  <r_i_glide_esite>  (1) 
-0.031877889874893664

>  <r_i_glide_evdw>  (1) 
-22.67774665209987

>  <r_i_glide_gscore>  (1) 
-2.6370857382165549

>  <r_i_glide_gscore_strain>  (1) 
0

>  <r_i_glide_hbond>  (1) 
-0.25377911759090077

>  <r_i_glide_ligand_efficiency>  (1) 
-0.05610820719609691

>  <r_i_glide_ligand_efficiency_ln>  (1) 
-0.54371247120124233

>  <r_i_glide_ligand_efficiency_sa>  (1) 
-0.20248476143910016

>  <r_i_glide_lipo>  (1) 
-0.73547698596928135

>  <r_i_glide_metal>  (1) 
-0

>  <r_i_glide_rewards>  (1) 
-0.11027207943092962

>  <r_lp_Energy>  (1) 
160.485421

>  <r_lp_tautomer_probability>  (1) 
1

>  <s_epik_Chemistry_Notes>  (1) 
This compound has an ester and may undergo hydrolysis at high or low pH.

>  <s_epik_cmdline>  (1) 
J2VwaWtfcHl0aG9uJywgJy1waHQnLCAnMS4wJywgJy1waCcsICc3LjQnLCAnLXRuJywgJzgnLCAnLW1hJywgJzUwMCcsICctaW1hZScsICc8aW5maWxlLm1hZT4nLCAnLW9tYWUnLCAnPG91dGZpbGUubWFlPic=

>  <s_epik_input>  (1) 
W0NIM11bQ0BASF0xW0NIMl1bQ0BIXShDMihGKUYpW0NASF0zW0NAXTQoW0NIM10pW0NAQF0xKFtPSF0pQzQoW09IXSlbQ0BIXShbQ0BASF0oW09IXSlbQ0gzXSlPW0NAQF0oTzUpKFtDSDNdKVtDQEBdNShbQ0BdMjM2KVtDSDJdW1MrXShbQ0gzXSlbQ0gyXVtDQEhdN04oQyg9TylPW0NIMl1bQ0BASF02W0NIM10pQzg9QyhbQ0gyXVtDSDJdNylbQ0gyXUMoQyNOKT1bQ0hdW0NIXT1bQ0hdOA==

>  <s_glide_docking_method>  (1) 
confgen

>  <s_i_glide_gridfile>  (1) 
gpcr_drd2_6luq_protein_autoprepared_prepared

>  <s_lp_Force_Field>  (1) 
S-OPLS

>  <s_lp_Variant>  (1) 
DiffSBDD_74-2

>  <s_m_source_file>  (1) 
generated_generic_title2_ligand_DiffSBDD_2026-06-23_prepared.sdf

>  <GenAI_Model>  (1) 
DiffSBDD

>  <Protein>  (1) 
generic_title2

$$$$
DiffSBDD_61
     RDKit          3D

  0  0  0  0  0  0  0  0  0  0999 V3000
M  V30 BEGIN CTAB
M  V30 COUNTS 46 47 0 0 1
M  V30 BEGIN ATOM
M  V30 1 C 8.177830 1.965475 -16.926496 0
M  V30 2 O 7.172525 5.520942 -14.439749 0 CHG=-1
M  V30 3 C 11.038644 8.073333 -6.855419 0
M  V30 4 O 7.113832 2.961188 -14.571488 0
M  V30 5 N 6.175378 0.370584 -16.829509 0 CFG=2 CHG=1
M  V30 6 O 11.183235 8.019933 -5.615058 0 CHG=-1
M  V30 7 C 9.190570 6.763935 -11.578229 0
M  V30 8 C 7.458839 0.799932 -16.211480 0 CFG=2
M  V30 9 P 7.085593 1.258864 -14.426351 0
M  V30 10 F 9.184863 4.790231 -8.476093 0
M  V30 11 C 4.897415 -0.224918 -18.803217 0
M  V30 12 N 10.305947 7.100976 -7.455413 0
M  V30 13 O 5.790624 4.218709 -12.734245 0
M  V30 14 O 5.702634 0.790229 -14.180815 0 CHG=-1
M  V30 15 C 10.136168 8.106291 -9.768487 0
M  V30 16 O 8.408658 4.221896 -12.592889 0
M  V30 17 F 4.575453 -2.487896 -18.165851 0
M  V30 18 P 7.011468 4.335299 -13.564851 0
M  V30 19 C 9.949838 7.021793 -8.863711 0
M  V30 20 C 9.375422 5.821968 -9.332491 0
M  V30 21 C 5.902180 -1.077641 -16.785049 0
M  V30 22 C 5.863899 0.812950 -18.212030 0
M  V30 23 C 4.686932 -1.249256 -17.689144 0 CFG=1
M  V30 24 C 9.003716 5.689842 -10.690463 0
M  V30 25 O 11.564316 8.981625 -7.528111 0
M  V30 26 C 8.400433 4.390229 -11.185033 0
M  V30 27 C 9.748363 7.967785 -11.118337 0
M  V30 28 O 8.201674 0.783340 -13.585134 0
M  V30 29 H 8.575407 1.664905 -17.895290 0
M  V30 30 H 7.524099 2.825119 -17.077996 0
M  V30 31 H 9.031907 2.306145 -16.344071 0
M  V30 32 H 8.898742 6.667046 -12.614030 0
M  V30 33 H 8.146522 -0.047184 -16.205372 0
M  V30 34 H 3.953830 0.218126 -19.125694 0
M  V30 35 H 5.350491 -0.696202 -19.677015 0
M  V30 36 H 9.966718 6.354921 -6.868432 0
M  V30 37 H 10.547039 9.039621 -9.444268 0
M  V30 38 H 6.752954 -1.629535 -17.188581 0
M  V30 39 H 5.718982 -1.427943 -15.768775 0
M  V30 40 H 5.442230 1.818774 -18.210297 0
M  V30 41 H 6.758259 0.823772 -18.833334 0
M  V30 42 H 3.775409 -1.022445 -17.135178 0
M  V30 43 H 9.019116 3.590237 -10.785026 0
M  V30 44 H 7.408702 4.262755 -10.754635 0
M  V30 45 H 9.872076 8.790182 -11.801068 0
M  V30 46 H 5.479720 0.762696 -16.199404 0
M  V30 END ATOM
M  V30 BEGIN BOND
M  V30 1 1 6 3
M  V30 2 1 8 1
M  V30 3 1 8 5
M  V30 4 1 9 4
M  V30 5 1 9 8
M  V30 6 1 12 3
M  V30 7 1 14 9
M  V30 8 1 18 2
M  V30 9 1 18 4
M  V30 10 2 18 13
M  V30 11 1 18 16
M  V30 12 1 19 12
M  V30 13 2 19 15
M  V30 14 1 20 10
M  V30 15 1 20 19
M  V30 16 1 21 5
M  V30 17 1 22 5
M  V30 18 1 22 11
M  V30 19 1 23 11
M  V30 20 1 23 17
M  V30 21 1 23 21
M  V30 22 1 24 7
M  V30 23 2 24 20
M  V30 24 2 25 3
M  V30 25 1 26 16
M  V30 26 1 26 24
M  V30 27 2 27 7
M  V30 28 1 27 15
M  V30 29 2 28 9
M  V30 30 1 29 1
M  V30 31 1 30 1
M  V30 32 1 31 1
M  V30 33 1 32 7
M  V30 34 1 8 33 CFG=1
M  V30 35 1 34 11
M  V30 36 1 35 11
M  V30 37 1 36 12
M  V30 38 1 37 15
M  V30 39 1 38 21
M  V30 40 1 39 21
M  V30 41 1 40 22
M  V30 42 1 41 22
M  V30 43 1 23 42 CFG=1
M  V30 44 1 43 26
M  V30 45 1 44 26
M  V30 46 1 45 27
M  V30 47 1 5 46 CFG=1
M  V30 END BOND
M  V30 END CTAB
M  END
>  <i_epik_Tot_Q>  (1) 
-2

>  <i_epik_Tot_abs_Q>  (1) 
4

>  <i_i_glide_confnum>  (1) 
339

>  <i_i_glide_lignum>  (1) 
96

>  <i_i_glide_posenum>  (1) 
161

>  <i_i_glide_rotatable_bonds>  (1) 
9

>  <i_lp_mmshare_version>  (1) 
72125

>  <i_m_source_file_index>  (1) 
62

>  <i_f3d_flags>  (1) 
0

>  <num_sample>  (1) 
100

>  <b_lp_Chiralities_Consistent>  (1) 
1

>  <r_epik_Charging_Adjusted_Penalty>  (1) 
0.22521151081801519

>  <r_epik_Ionization_Penalty>  (1) 
0.079461215956128484

>  <r_epik_Ionization_Penalty_Charging>  (1) 
0.079461215147622277

>  <r_epik_Ionization_Penalty_Neutral>  (1) 
8.0850620194651714e-10

>  <r_epik_State_Penalty>  (1) 
0.14575029567039291

>  <r_glide_ring_energy>  (1) 
0

>  <r_i_docking_score>  (1) 
-2.5924828862211622

>  <r_i_glide_ecoul>  (1) 
1.7205259688419834

>  <r_i_glide_eff_state_penalty>  (1) 
0.14575029567039291

>  <r_i_glide_einternal>  (1) 
5.2564809814127109

>  <r_i_glide_emodel>  (1) 
-38.336757894137847

>  <r_i_glide_emodel_strain>  (1) 
1.3512641764778905

>  <r_i_glide_energy>  (1) 
-33.966679944814771

>  <r_i_glide_erotb>  (1) 
0.71514179105455389

>  <r_i_glide_esite>  (1) 
0

>  <r_i_glide_evdw>  (1) 
-35.687205913656754

>  <r_i_glide_gscore>  (1) 
-2.7382331818915553

>  <r_i_glide_gscore_strain>  (1) 
0

>  <r_i_glide_hbond>  (1) 
0

>  <r_i_glide_ligand_efficiency>  (1) 
-0.09258867450789865

>  <r_i_glide_ligand_efficiency_ln>  (1) 
-0.59842116874494378

>  <r_i_glide_ligand_efficiency_sa>  (1) 
-0.28115374793127035

>  <r_i_glide_lipo>  (1) 
-0.76836903315711247

>  <r_i_glide_metal>  (1) 
-0

>  <r_i_glide_rewards>  (1) 
-1.1587245394324568

>  <r_lp_Energy>  (1) 
8.1711899999999993

>  <s_epik_cmdline>  (1) 
J2VwaWtfcHl0aG9uJywgJy1waHQnLCAnMS4wJywgJy1waCcsICc3LjQnLCAnLXRuJywgJzgnLCAnLW1hJywgJzUwMCcsICctaW1hZScsICc8aW5maWxlLm1hZT4nLCAnLW9tYWUnLCAnPG91dGZpbGUubWFlPic=

>  <s_epik_input>  (1) 
W0NIMl0xW0NIMl1bQ0BASF0oRilbQ0gyXU4xW0NAQEhdKFtDSDNdKVtQQF0oPU8pKFtPSF0pT1tQQEBdKD1PKShbT0hdKU9bQ0gyXWMoYzJGKVtjSF1bY0hdW2NIXWMyW05IXUMoPU8pW09IXQ==

>  <s_glide_docking_method>  (1) 
confgen

>  <s_i_glide_gridfile>  (1) 
gpcr_drd2_6luq_protein_autoprepared_prepared

>  <s_lp_Force_Field>  (1) 
S-OPLS

>  <s_lp_Variant>  (1) 
DiffSBDD_61-1

>  <s_m_source_file>  (1) 
generated_generic_title2_ligand_DiffSBDD_2026-06-23_prepared.sdf

>  <GenAI_Model>  (1) 
DiffSBDD

>  <Protein>  (1) 
generic_title2

$$$$
DiffSBDD_32
     RDKit          3D

  0  0  0  0  0  0  0  0  0  0999 V3000
M  V30 BEGIN CTAB
M  V30 COUNTS 76 79 0 0 1
M  V30 BEGIN ATOM
M  V30 1 O 7.959239 6.660988 -19.528716 0
M  V30 2 C 14.095522 6.842572 -17.785395 0 CFG=1
M  V30 3 F 4.120846 7.567073 -23.598124 0
M  V30 4 O 8.085970 2.853060 -18.916524 0
M  V30 5 O 10.970784 2.084106 -18.974025 0
M  V30 6 C 14.152496 5.352597 -19.946378 0
M  V30 7 C 5.682969 3.801915 -20.865789 0
M  V30 8 C 5.975798 5.354192 -18.349623 0 CFG=1
M  V30 9 O 6.514866 5.881849 -21.836470 0
M  V30 10 O 4.577471 6.743238 -20.960265 0
M  V30 11 C 8.505387 4.056231 -18.305946 0 CFG=1
M  V30 12 C 13.122434 2.963790 -19.604836 0
M  V30 13 C 14.571354 5.529969 -18.466824 0
M  V30 14 O 9.370120 6.227606 -19.036748 0
M  V30 15 S 5.154820 6.789567 -17.583580 0
M  V30 16 C 13.996553 3.910356 -20.449124 0
M  V30 17 C 3.581972 10.121834 -21.916099 0
M  V30 18 C 14.677828 8.104933 -18.467471 0
M  V30 19 C 6.991364 5.606624 -19.430600 0 CFG=2
M  V30 20 C 4.998468 10.212041 -22.460122 0 CFG=2
M  V30 21 O 2.693565 10.807272 -22.770559 0
M  V30 22 C 14.602089 3.491225 -21.573516 0
M  V30 23 F 8.150072 8.530561 -23.226764 0
M  V30 24 C 11.749634 5.989319 -16.799934 0
M  V30 25 O 7.030905 9.372639 -23.591315 0
M  V30 26 C 5.830354 9.030717 -22.931450 0 CFG=2
M  V30 27 C 11.079465 4.478812 -18.847746 0 CFG=1
M  V30 28 C 9.588058 4.806195 -19.143169 0 CFG=1
M  V30 29 C 5.355113 7.581002 -23.091740 0 CFG=1
M  V30 30 C 16.210762 8.172493 -18.526950 0
M  V30 31 N 5.937359 9.551698 -21.577173 0
M  V30 32 C 7.410189 5.064462 -18.039719 0 CFG=1
M  V30 33 C 12.554495 7.013345 -17.646694 0
M  V30 34 C 5.431509 6.692969 -21.844103 0
M  V30 35 C 6.755828 4.919515 -20.802822 0 CFG=1
M  V30 36 C 11.537396 4.569860 -17.361384 0
M  V30 37 C 11.583837 3.206636 -19.577083 0 CFG=2
M  V30 38 H 14.491708 6.821066 -16.769450 0
M  V30 39 H 7.489505 2.407539 -18.331383 0
M  V30 40 H 10.027847 2.187240 -19.034383 0
M  V30 41 H 13.273247 5.932955 -20.201732 0
M  V30 42 H 14.925270 5.831507 -20.549411 0
M  V30 43 H 5.890778 2.986905 -20.175665 0
M  V30 44 H 4.680841 4.165596 -20.640586 0
M  V30 45 H 5.649189 3.364822 -21.864034 0
M  V30 46 H 5.341362 4.475974 -18.394626 0
M  V30 47 H 8.882976 3.773782 -17.327245 0
M  V30 48 H 13.260590 1.971411 -20.036940 0
M  V30 49 H 13.538862 2.845113 -18.608613 0
M  V30 50 H 15.658699 5.468957 -18.416862 0
M  V30 51 H 14.266053 4.696863 -17.850805 0
M  V30 52 H 5.124152 6.325040 -16.331998 0
M  V30 53 H 3.539208 10.583291 -20.929392 0
M  V30 54 H 3.264202 9.085080 -21.801522 0
M  V30 55 H 14.276207 8.200996 -19.477148 0
M  V30 56 H 14.328293 8.988213 -17.930451 0
M  V30 57 H 5.352312 11.211129 -22.708810 0
M  V30 58 H 2.673126 10.365123 -23.606775 0
M  V30 59 H 14.490852 2.474751 -21.921186 0
M  V30 60 H 15.216081 4.160228 -22.158620 0
M  V30 61 H 10.752812 6.390361 -16.627338 0
M  V30 62 H 12.201620 5.913632 -15.810088 0
M  V30 63 H 11.571685 5.266485 -19.385437 0
M  V30 64 H 9.453062 4.591258 -20.199827 0
M  V30 65 H 5.971988 7.117514 -23.862315 0
M  V30 66 H 16.532379 9.139841 -18.914020 0
M  V30 67 H 16.656967 8.047519 -17.541620 0
M  V30 68 H 16.623612 7.408563 -19.185638 0
M  V30 69 H 5.436235 8.939428 -20.938171 0
M  V30 70 H 7.749801 5.768307 -17.279610 0
M  V30 71 H 12.094578 7.161720 -18.621715 0
M  V30 72 H 12.400268 7.973331 -17.152384 0
M  V30 73 H 7.681462 4.441059 -21.103013 0
M  V30 74 H 10.850035 4.041058 -16.707046 0
M  V30 75 H 12.446759 4.006831 -17.198050 0
M  V30 76 H 11.246365 3.234249 -20.613517 0
M  V30 END ATOM
M  V30 BEGIN BOND
M  V30 1 1 11 4
M  V30 2 1 13 2
M  V30 3 1 13 6
M  V30 4 1 14 1
M  V30 5 1 15 8
M  V30 6 1 16 6
M  V30 7 1 16 12
M  V30 8 1 18 2
M  V30 9 1 19 1 CFG=3
M  V30 10 1 19 8
M  V30 11 1 20 17
M  V30 12 1 21 17
M  V30 13 2 22 16
M  V30 14 1 25 23
M  V30 15 1 26 20
M  V30 16 1 26 25 CFG=3
M  V30 17 1 28 11
M  V30 18 1 28 14
M  V30 19 1 28 27
M  V30 20 1 29 3
M  V30 21 1 29 26
M  V30 22 1 30 18
M  V30 23 1 31 20
M  V30 24 1 31 26
M  V30 25 1 32 8
M  V30 26 1 32 11
M  V30 27 1 32 19
M  V30 28 1 33 2
M  V30 29 1 33 24
M  V30 30 1 34 9
M  V30 31 2 34 10
M  V30 32 1 34 29
M  V30 33 1 35 7
M  V30 34 1 35 9
M  V30 35 1 35 19
M  V30 36 1 36 24
M  V30 37 1 36 27
M  V30 38 1 37 5
M  V30 39 1 37 12
M  V30 40 1 37 27
M  V30 41 1 2 38 CFG=1
M  V30 42 1 39 4
M  V30 43 1 40 5
M  V30 44 1 41 6
M  V30 45 1 42 6
M  V30 46 1 43 7
M  V30 47 1 44 7
M  V30 48 1 45 7
M  V30 49 1 8 46 CFG=3
M  V30 50 1 11 47 CFG=1
M  V30 51 1 48 12
M  V30 52 1 49 12
M  V30 53 1 50 13
M  V30 54 1 51 13
M  V30 55 1 52 15
M  V30 56 1 53 17
M  V30 57 1 54 17
M  V30 58 1 55 18
M  V30 59 1 56 18
M  V30 60 1 20 57 CFG=3
M  V30 61 1 58 21
M  V30 62 1 59 22
M  V30 63 1 60 22
M  V30 64 1 61 24
M  V30 65 1 62 24
M  V30 66 1 27 63 CFG=3
M  V30 67 1 28 64 CFG=3
M  V30 68 1 29 65 CFG=3
M  V30 69 1 66 30
M  V30 70 1 67 30
M  V30 71 1 68 30
M  V30 72 1 69 31
M  V30 73 1 32 70 CFG=1
M  V30 74 1 71 33
M  V30 75 1 72 33
M  V30 76 1 35 73 CFG=3
M  V30 77 1 74 36
M  V30 78 1 75 36
M  V30 79 1 37 76 CFG=3
M  V30 END BOND
M  V30 END CTAB
M  END
>  <i_epik_Tot_Q>  (1) 
0

>  <i_epik_Tot_abs_Q>  (1) 
0

>  <i_i_glide_confnum>  (1) 
102

>  <i_i_glide_lignum>  (1) 
54

>  <i_i_glide_posenum>  (1) 
62

>  <i_i_glide_rotatable_bonds>  (1) 
13

>  <i_lp_mmshare_version>  (1) 
72125

>  <i_m_source_file_index>  (1) 
33

>  <i_f3d_flags>  (1) 
0

>  <num_sample>  (1) 
100

>  <b_lp_Chiralities_Consistent>  (1) 
1

>  <r_epik_Charging_Adjusted_Penalty>  (1) 
0.093290770244600377

>  <r_epik_Ionization_Penalty>  (1) 
0.093291904882598309

>  <r_epik_Ionization_Penalty_Charging>  (1) 
0

>  <r_epik_Ionization_Penalty_Neutral>  (1) 
0.093291904882598309

>  <r_epik_State_Penalty>  (1) 
0.093290770244600377

>  <r_glide_ring_energy>  (1) 
0

>  <r_i_docking_score>  (1) 
-2.5782990949302187

>  <r_i_glide_ecoul>  (1) 
-1.0912081502622208

>  <r_i_glide_eff_state_penalty>  (1) 
0.093290770244600377

>  <r_i_glide_einternal>  (1) 
5.1531478664831774

>  <r_i_glide_emodel>  (1) 
-29.555458446970519

>  <r_i_glide_emodel_strain>  (1) 
0.45665258650750218

>  <r_i_glide_energy>  (1) 
-28.243509911858698

>  <r_i_glide_erotb>  (1) 
0.4066656280010113

>  <r_i_glide_esite>  (1) 
-0.013372238808905083

>  <r_i_glide_evdw>  (1) 
-27.152301761596476

>  <r_i_glide_gscore>  (1) 
-2.6715898651748189

>  <r_i_glide_gscore_strain>  (1) 
0

>  <r_i_glide_hbond>  (1) 
0

>  <r_i_glide_ligand_efficiency>  (1) 
-0.069683759322438338

>  <r_i_glide_ligand_efficiency_ln>  (1) 
-0.55917262978373894

>  <r_i_glide_ligand_efficiency_sa>  (1) 
-0.2322017455190665

>  <r_i_glide_lipo>  (1) 
-1.0550084001596878

>  <r_i_glide_metal>  (1) 
-0

>  <r_i_glide_rewards>  (1) 
-0.48857854358808056

>  <r_lp_Energy>  (1) 
49.816001

>  <s_epik_Chemistry_Notes>  (1) 
This compound has an ester and may undergo hydrolysis at high or low pH.

>  <s_epik_cmdline>  (1) 
J2VwaWtfcHl0aG9uJywgJy1waHQnLCAnMS4wJywgJy1waCcsICc3LjQnLCAnLXRuJywgJzgnLCAnLW1hJywgJzUwMCcsICctaW1hZScsICc8aW5maWxlLm1hZT4nLCAnLW9tYWUnLCAnPG91dGZpbGUubWFlPic=

>  <s_epik_input>  (1) 
W0NIM11bQ0gyXVtDQEBIXTFbQ0gyXVtDSDJdQyg9W0NIMl0pW0NIMl1bQ0BASF0oW09IXSlbQ0BIXShbQ0gyXVtDSDJdW0NIMl0xKVtDQEhdKE9PMilbQ0BIXShbT0hdKVtDQEhdKFtDQEhdM1tTSF0pW0NAXTIzW0NAQEhdKFtDSDNdKU9DKD1PKVtDQEBIXShGKUM0KE9GKVtDQEhdKFtOSF00KVtDSDJdW09IXQ==

>  <s_glide_docking_method>  (1) 
confgen

>  <s_i_glide_gridfile>  (1) 
gpcr_drd2_6luq_protein_autoprepared_prepared

>  <s_lp_Force_Field>  (1) 
S-OPLS

>  <s_lp_Variant>  (1) 
DiffSBDD_32-1

>  <s_m_source_file>  (1) 
generated_generic_title2_ligand_DiffSBDD_2026-06-23_prepared.sdf

>  <GenAI_Model>  (1) 
DiffSBDD

>  <Protein>  (1) 
generic_title2

$$$$
DiffSBDD_55
     RDKit          3D

  0  0  0  0  0  0  0  0  0  0999 V3000
M  V30 BEGIN CTAB
M  V30 COUNTS 28 29 0 0 1
M  V30 BEGIN ATOM
M  V30 1 C 2.100083 20.664505 1.058095 0
M  V30 2 C 0.598515 19.924471 2.851138 0
M  V30 3 C 1.722473 22.102187 2.985735 0
M  V30 4 C -0.622444 19.051917 4.821497 0 CFG=2
M  V30 5 O -0.224610 15.218376 4.427989 0
M  V30 6 S -1.824590 17.708693 5.054932 0
M  V30 7 N -1.351219 15.477359 3.553249 0
M  V30 8 N -0.292033 18.951664 3.400136 0
M  V30 9 C 1.235233 19.695643 1.601368 0
M  V30 10 C -0.320596 17.634692 2.785011 0
M  V30 11 C 0.576506 18.788142 5.748495 0
M  V30 12 C 2.342993 21.863807 1.747342 0
M  V30 13 F 3.173392 22.792330 1.216280 0
M  V30 14 C 0.851674 21.142351 3.538828 0
M  V30 15 C -1.508172 16.923598 3.444195 0 CFG=2
M  V30 16 H 2.575411 20.486970 0.107008 0
M  V30 17 H 1.910549 23.025981 3.512622 0
M  V30 18 H -1.120406 19.992283 5.057978 0
M  V30 19 H 0.368725 14.742630 3.863123 0
M  V30 20 H -2.113680 15.030139 4.044480 0
M  V30 21 H 1.061647 18.783626 1.056246 0
M  V30 22 H 0.628019 17.129409 2.968264 0
M  V30 23 H -0.503687 17.666716 1.711857 0
M  V30 24 H 1.380436 19.509923 5.615449 0
M  V30 25 H 0.272770 18.832097 6.794315 0
M  V30 26 H 0.991816 17.795793 5.572509 0
M  V30 27 H 0.378299 21.344670 4.485474 0
M  V30 28 H -2.395188 17.115548 2.839472 0
M  V30 END ATOM
M  V30 BEGIN BOND
M  V30 1 1 6 4
M  V30 2 1 7 5
M  V30 3 1 8 2
M  V30 4 1 8 4
M  V30 5 2 9 1
M  V30 6 1 9 2
M  V30 7 1 10 8
M  V30 8 1 11 4
M  V30 9 1 12 1
M  V30 10 2 12 3
M  V30 11 1 13 12
M  V30 12 2 14 2
M  V30 13 1 14 3
M  V30 14 1 15 6
M  V30 15 1 15 7
M  V30 16 1 15 10
M  V30 17 1 16 1
M  V30 18 1 17 3
M  V30 19 1 4 18 CFG=3
M  V30 20 1 19 5
M  V30 21 1 20 7
M  V30 22 1 21 9
M  V30 23 1 22 10
M  V30 24 1 23 10
M  V30 25 1 24 11
M  V30 26 1 25 11
M  V30 27 1 26 11
M  V30 28 1 27 14
M  V30 29 1 15 28 CFG=3
M  V30 END BOND
M  V30 END CTAB
M  END
>  <i_epik_Tot_Q>  (1) 
0

>  <i_epik_Tot_abs_Q>  (1) 
0

>  <i_i_glide_confnum>  (1) 
11

>  <i_i_glide_lignum>  (1) 
88

>  <i_i_glide_posenum>  (1) 
330

>  <i_i_glide_rotatable_bonds>  (1) 
3

>  <i_lp_mmshare_version>  (1) 
72125

>  <i_m_source_file_index>  (1) 
56

>  <i_f3d_flags>  (1) 
0

>  <num_sample>  (1) 
100

>  <b_lp_Chiralities_Consistent>  (1) 
1

>  <r_epik_Charging_Adjusted_Penalty>  (1) 
0

>  <r_epik_Ionization_Penalty>  (1) 
0.00013553305087233701

>  <r_epik_Ionization_Penalty_Charging>  (1) 
0

>  <r_epik_Ionization_Penalty_Neutral>  (1) 
0.00013553305087233701

>  <r_epik_State_Penalty>  (1) 
-0

>  <r_glide_ring_energy>  (1) 
1.903466321057584

>  <r_i_docking_score>  (1) 
-2.5659875590730503

>  <r_i_glide_ecoul>  (1) 
-0.35025117719895033

>  <r_i_glide_eff_state_penalty>  (1) 
-0

>  <r_i_glide_einternal>  (1) 
0.021412028890763324

>  <r_i_glide_emodel>  (1) 
-20.109371039872951

>  <r_i_glide_emodel_strain>  (1) 
1.5047399617884594e-05

>  <r_i_glide_energy>  (1) 
-16.878280321731193

>  <r_i_glide_erotb>  (1) 
0.65380846344162624

>  <r_i_glide_esite>  (1) 
0

>  <r_i_glide_evdw>  (1) 
-16.528029144532244

>  <r_i_glide_gscore>  (1) 
-2.5659875590730503

>  <r_i_glide_gscore_strain>  (1) 
0

>  <r_i_glide_hbond>  (1) 
0

>  <r_i_glide_ligand_efficiency>  (1) 
-0.17106583727153668

>  <r_i_glide_ligand_efficiency_ln>  (1) 
-0.6920045360524828

>  <r_i_glide_ligand_efficiency_sa>  (1) 
-0.42188463338451521

>  <r_i_glide_lipo>  (1) 
-0.4098037906280656

>  <r_i_glide_metal>  (1) 
-0

>  <r_i_glide_rewards>  (1) 
-1.9310530980801557

>  <r_lp_Energy>  (1) 
2.3965259999999997

>  <r_lp_tautomer_probability>  (1) 
1

>  <s_epik_Chemistry_Notes>  (1) 
This compound contains an acetal/aminal-like group ( X-CH(R)-Y where X, Y are N, S, or O) that may be acid/base labile, releasing an aldehyde. This compound has a N-S or N-O group and may undergo hydrolysis at high or low pH.

>  <s_epik_cmdline>  (1) 
J2VwaWtfcHl0aG9uJywgJy1waHQnLCAnMS4wJywgJy1waCcsICc3LjQnLCAnLXRuJywgJzgnLCAnLW1hJywgJzUwMCcsICctaW1hZScsICc8aW5maWxlLm1hZT4nLCAnLW9tYWUnLCAnPG91dGZpbGUubWFlPic=

>  <s_epik_input>  (1) 
W2NIXTFbY0hdYyhGKVtjSF1bY0hdYzFOMltDSDJdW0NAQEhdKFtOSF1bT0hdKVNbQ0BIXTJbQ0gzXQ==

>  <s_glide_docking_method>  (1) 
confgen

>  <s_i_glide_gridfile>  (1) 
gpcr_drd2_6luq_protein_autoprepared_prepared

>  <s_lp_Force_Field>  (1) 
S-OPLS

>  <s_lp_Variant>  (1) 
DiffSBDD_55-1

>  <s_m_source_file>  (1) 
generated_generic_title2_ligand_DiffSBDD_2026-06-23_prepared.sdf

>  <GenAI_Model>  (1) 
DiffSBDD

>  <Protein>  (1) 
generic_title2

$$$$
DiffSBDD_61
     RDKit          3D

  0  0  0  0  0  0  0  0  0  0999 V3000
M  V30 BEGIN CTAB
M  V30 COUNTS 45 46 0 0 1
M  V30 BEGIN ATOM
M  V30 1 C 9.214913 7.999842 -7.198363 0
M  V30 2 O 9.003385 8.397321 -11.985021 0 CHG=-1
M  V30 3 C 6.572361 0.932565 -16.605981 0
M  V30 4 O 10.205259 7.291809 -9.964380 0
M  V30 5 N 11.454119 8.019328 -6.168457 0
M  V30 6 O 5.947758 -0.147302 -16.634555 0 CHG=-1
M  V30 7 C 8.967336 5.082564 -14.470171 0
M  V30 8 C 10.685767 7.590551 -7.334410 0 CFG=2
M  V30 9 P 11.365297 8.139226 -9.029201 0
M  V30 10 F 7.479797 2.173310 -12.785025 0
M  V30 11 C 11.933638 9.407236 -4.303384 0
M  V30 12 N 6.941124 1.422778 -15.392493 0
M  V30 13 O 10.922470 6.764789 -12.386521 0
M  V30 14 O 11.227077 9.590056 -9.184989 0 CHG=-1
M  V30 15 C 8.053337 3.571514 -16.153997 0
M  V30 16 O 8.565891 5.918169 -11.654453 0
M  V30 17 F 11.775413 7.646069 -2.683547 0
M  V30 18 P 9.732969 7.171208 -11.598814 0
M  V30 19 C 7.627914 2.679667 -15.121829 0
M  V30 20 C 7.880267 3.013628 -13.769285 0
M  V30 21 C 11.333799 7.166089 -4.993607 0
M  V30 22 C 11.350254 9.406291 -5.726538 0
M  V30 23 C 12.130557 7.938349 -3.934973 0 CFG=1
M  V30 24 C 8.554060 4.214862 -13.444221 0
M  V30 25 O 6.845445 1.547400 -17.653890 0
M  V30 26 C 8.845515 4.568482 -11.981792 0
M  V30 27 C 8.716352 4.765438 -15.816994 0
M  V30 28 O 12.712084 7.590254 -9.249088 0
M  V30 29 H 8.815719 7.818776 -6.200948 0
M  V30 30 H 9.061708 9.050390 -7.449257 0
M  V30 31 H 8.588571 7.421527 -7.880021 0
M  V30 32 H 9.481299 5.990223 -14.223605 0
M  V30 33 H 10.719981 6.500683 -7.338255 0
M  V30 34 H 12.887968 9.934314 -4.260583 0
M  V30 35 H 11.246315 9.907506 -3.620078 0
M  V30 36 H 6.691904 0.871020 -14.586214 0
M  V30 37 H 7.886111 3.357624 -17.187481 0
M  V30 38 H 10.287384 7.059162 -4.719249 0
M  V30 39 H 11.731028 6.165157 -5.172149 0
M  V30 40 H 11.884133 10.073546 -6.406194 0
M  V30 41 H 10.310035 9.723506 -5.686521 0
M  V30 42 H 13.188041 7.690741 -3.984824 0
M  V30 43 H 8.215147 3.974021 -11.323984 0
M  V30 44 H 9.873263 4.312283 -11.730000 0
M  V30 45 H 9.040408 5.439141 -16.596961 0
M  V30 END ATOM
M  V30 BEGIN BOND
M  V30 1 1 6 3
M  V30 2 1 8 1
M  V30 3 1 8 5
M  V30 4 1 9 4
M  V30 5 1 9 8
M  V30 6 1 12 3
M  V30 7 1 14 9
M  V30 8 1 18 2
M  V30 9 1 18 4
M  V30 10 2 18 13
M  V30 11 1 18 16
M  V30 12 1 19 12
M  V30 13 2 19 15
M  V30 14 1 20 10
M  V30 15 1 20 19
M  V30 16 1 21 5
M  V30 17 1 22 5
M  V30 18 1 22 11
M  V30 19 1 23 11
M  V30 20 1 23 17
M  V30 21 1 23 21
M  V30 22 1 24 7
M  V30 23 2 24 20
M  V30 24 2 25 3
M  V30 25 1 26 16
M  V30 26 1 26 24
M  V30 27 2 27 7
M  V30 28 1 27 15
M  V30 29 2 28 9
M  V30 30 1 29 1
M  V30 31 1 30 1
M  V30 32 1 31 1
M  V30 33 1 32 7
M  V30 34 1 8 33 CFG=3
M  V30 35 1 34 11
M  V30 36 1 35 11
M  V30 37 1 36 12
M  V30 38 1 37 15
M  V30 39 1 38 21
M  V30 40 1 39 21
M  V30 41 1 40 22
M  V30 42 1 41 22
M  V30 43 1 23 42 CFG=1
M  V30 44 1 43 26
M  V30 45 1 44 26
M  V30 46 1 45 27
M  V30 END BOND
M  V30 END CTAB
M  END
>  <i_epik_Tot_Q>  (1) 
-3

>  <i_epik_Tot_abs_Q>  (1) 
3

>  <i_i_glide_confnum>  (1) 
25

>  <i_i_glide_lignum>  (1) 
98

>  <i_i_glide_posenum>  (1) 
35

>  <i_i_glide_rotatable_bonds>  (1) 
9

>  <i_lp_mmshare_version>  (1) 
72125

>  <i_m_source_file_index>  (1) 
62

>  <i_f3d_flags>  (1) 
0

>  <num_sample>  (1) 
100

>  <b_lp_Chiralities_Consistent>  (1) 
1

>  <r_epik_Charging_Adjusted_Penalty>  (1) 
1.3021205518869732

>  <r_epik_Ionization_Penalty>  (1) 
1.2351473723199373

>  <r_epik_Ionization_Penalty_Charging>  (1) 
0.00073408944429159239

>  <r_epik_Ionization_Penalty_Neutral>  (1) 
1.2344132828756458

>  <r_epik_State_Penalty>  (1) 
1.3013864624426816

>  <r_glide_ring_energy>  (1) 
0

>  <r_i_docking_score>  (1) 
-2.5577273747745357

>  <r_i_glide_ecoul>  (1) 
1.061526277784564

>  <r_i_glide_eff_state_penalty>  (1) 
1.3013864624426816

>  <r_i_glide_einternal>  (1) 
10.814448277057714

>  <r_i_glide_emodel>  (1) 
-31.473084054596246

>  <r_i_glide_emodel_strain>  (1) 
0.15666709402107415

>  <r_i_glide_energy>  (1) 
-30.419512797387554

>  <r_i_glide_erotb>  (1) 
0.71811031056760655

>  <r_i_glide_esite>  (1) 
-0.038349070856676638

>  <r_i_glide_evdw>  (1) 
-31.48103907517212

>  <r_i_glide_gscore>  (1) 
-3.8591138372172176

>  <r_i_glide_gscore_strain>  (1) 
0

>  <r_i_glide_hbond>  (1) 
0

>  <r_i_glide_ligand_efficiency>  (1) 
-0.091347406241947704

>  <r_i_glide_ligand_efficiency_ln>  (1) 
-0.59039857623690428

>  <r_i_glide_ligand_efficiency_sa>  (1) 
-0.2773845264037445

>  <r_i_glide_lipo>  (1) 
-1.9574576827957775

>  <r_i_glide_metal>  (1) 
-0

>  <r_i_glide_rewards>  (1) 
-1.1665943820414484

>  <r_lp_Energy>  (1) 
20.353621999999998

>  <s_epik_cmdline>  (1) 
J2VwaWtfcHl0aG9uJywgJy1waHQnLCAnMS4wJywgJy1waCcsICc3LjQnLCAnLXRuJywgJzgnLCAnLW1hJywgJzUwMCcsICctaW1hZScsICc8aW5maWxlLm1hZT4nLCAnLW9tYWUnLCAnPG91dGZpbGUubWFlPic=

>  <s_epik_input>  (1) 
W0NIMl0xW0NIMl1bQ0BASF0oRilbQ0gyXU4xW0NAQEhdKFtDSDNdKVtQQF0oPU8pKFtPSF0pT1tQQEBdKD1PKShbT0hdKU9bQ0gyXWMoYzJGKVtjSF1bY0hdW2NIXWMyW05IXUMoPU8pW09IXQ==

>  <s_glide_docking_method>  (1) 
confgen

>  <s_i_glide_gridfile>  (1) 
gpcr_drd2_6luq_protein_autoprepared_prepared

>  <s_lp_Force_Field>  (1) 
S-OPLS

>  <s_lp_Variant>  (1) 
DiffSBDD_61-3

>  <s_m_source_file>  (1) 
generated_generic_title2_ligand_DiffSBDD_2026-06-23_prepared.sdf

>  <GenAI_Model>  (1) 
DiffSBDD

>  <Protein>  (1) 
generic_title2

$$$$
DiffSBDD_54
     RDKit          3D

  0  0  0  0  0  0  0  0  0  0999 V3000
M  V30 BEGIN CTAB
M  V30 COUNTS 44 46 0 0 1
M  V30 BEGIN ATOM
M  V30 1 C -0.155738 21.456411 -1.815441 0
M  V30 2 C 1.438739 18.980961 -6.853486 0
M  V30 3 C -4.655147 19.975822 -1.726397 0
M  V30 4 C -1.762814 17.887457 -4.237599 0 CFG=1
M  V30 5 C -0.492438 18.778221 -8.439735 0
M  V30 6 C -4.639023 19.123002 -2.973523 0
M  V30 7 F -2.170689 21.361274 -0.707824 0
M  V30 8 C 0.032729 19.524389 -7.194391 0
M  V30 9 C -1.295184 19.175376 -3.591005 0 CFG=2
M  V30 10 C -1.362332 20.587907 -1.433674 0
M  V30 11 C -1.417129 17.912722 -5.703716 0
M  V30 12 C -0.596040 19.992910 -4.668219 0
M  V30 13 C -0.703610 17.848966 -3.165903 0
M  V30 14 C -3.391456 19.250109 -2.128605 0
M  V30 15 C 0.163028 21.019030 -7.548754 0
M  V30 16 C -0.984271 19.357730 -6.022804 0 CFG=1
M  V30 17 F -0.927414 19.597060 -0.653899 0
M  V30 18 C -2.165737 20.009731 -2.630027 0 CFG=2
M  V30 19 H 0.305682 21.891287 -0.928540 0
M  V30 20 H 0.610661 20.871019 -2.319257 0
M  V30 21 H -0.445904 22.276486 -2.472252 0
M  V30 22 H 2.092713 19.015954 -7.725488 0
M  V30 23 H 1.410589 17.946766 -6.519014 0
M  V30 24 H 1.931620 19.563402 -6.076114 0
M  V30 25 H -5.198183 19.596215 -0.863501 0
M  V30 26 H -4.689009 21.055351 -1.859699 0
M  V30 27 H -2.727500 17.455524 -3.982518 0
M  V30 28 H -1.477277 19.140014 -8.737215 0
M  V30 29 H 0.175442 18.905246 -9.290287 0
M  V30 30 H -0.574094 17.704617 -8.268893 0
M  V30 31 H -4.653698 19.634092 -3.934272 0
M  V30 32 H -5.169989 18.173470 -2.942604 0
M  V30 33 H -2.280619 17.615966 -6.300324 0
M  V30 34 H -0.627633 17.190323 -5.890718 0
M  V30 35 H 0.475091 19.942933 -4.483950 0
M  V30 36 H -0.877027 21.045745 -4.637674 0
M  V30 37 H 0.317783 17.627167 -3.470475 0
M  V30 38 H -0.990328 17.447814 -2.196299 0
M  V30 39 H -3.145605 18.382056 -1.519741 0
M  V30 40 H 0.548702 21.600554 -6.711937 0
M  V30 41 H 0.845715 21.170807 -8.385008 0
M  V30 42 H -0.799103 21.448009 -7.830423 0
M  V30 43 H -1.903053 19.864159 -6.324239 0
M  V30 44 H -2.555001 20.855084 -3.198984 0
M  V30 END ATOM
M  V30 BEGIN BOND
M  V30 1 1 6 3
M  V30 2 1 8 2
M  V30 3 1 8 5
M  V30 4 1 9 4
M  V30 5 1 10 1
M  V30 6 1 10 7
M  V30 7 1 11 4
M  V30 8 1 9 12 CFG=3
M  V30 9 1 13 4
M  V30 10 1 13 9
M  V30 11 1 14 3
M  V30 12 1 14 6
M  V30 13 1 15 8
M  V30 14 1 16 8
M  V30 15 1 16 11
M  V30 16 1 16 12
M  V30 17 1 17 10
M  V30 18 1 18 9
M  V30 19 1 18 10
M  V30 20 1 18 14
M  V30 21 1 19 1
M  V30 22 1 20 1
M  V30 23 1 21 1
M  V30 24 1 22 2
M  V30 25 1 23 2
M  V30 26 1 24 2
M  V30 27 1 25 3
M  V30 28 1 26 3
M  V30 29 1 4 27 CFG=3
M  V30 30 1 28 5
M  V30 31 1 29 5
M  V30 32 1 30 5
M  V30 33 1 31 6
M  V30 34 1 32 6
M  V30 35 1 33 11
M  V30 36 1 34 11
M  V30 37 1 35 12
M  V30 38 1 36 12
M  V30 39 1 37 13
M  V30 40 1 38 13
M  V30 41 1 39 14
M  V30 42 1 40 15
M  V30 43 1 41 15
M  V30 44 1 42 15
M  V30 45 1 16 43 CFG=3
M  V30 46 1 18 44 CFG=3
M  V30 END BOND
M  V30 END CTAB
M  END
>  <i_epik_Tot_Q>  (1) 
0

>  <i_epik_Tot_abs_Q>  (1) 
0

>  <i_i_glide_confnum>  (1) 
32

>  <i_i_glide_lignum>  (1) 
87

>  <i_i_glide_posenum>  (1) 
362

>  <i_i_glide_rotatable_bonds>  (1) 
4

>  <i_lp_mmshare_version>  (1) 
72125

>  <i_m_source_file_index>  (1) 
55

>  <i_f3d_flags>  (1) 
0

>  <num_sample>  (1) 
100

>  <b_lp_Chiralities_Consistent>  (1) 
1

>  <r_epik_Charging_Adjusted_Penalty>  (1) 
0

>  <r_epik_Ionization_Penalty>  (1) 
0

>  <r_epik_Ionization_Penalty_Charging>  (1) 
0

>  <r_epik_Ionization_Penalty_Neutral>  (1) 
0

>  <r_epik_State_Penalty>  (1) 
-0

>  <r_glide_ring_energy>  (1) 
0.53150930068519497

>  <r_i_docking_score>  (1) 
-2.5331729528821083

>  <r_i_glide_ecoul>  (1) 
-0.075910222223419158

>  <r_i_glide_eff_state_penalty>  (1) 
-0

>  <r_i_glide_einternal>  (1) 
3.7026238092493102

>  <r_i_glide_emodel>  (1) 
-8.1216313584437767

>  <r_i_glide_emodel_strain>  (1) 
0

>  <r_i_glide_energy>  (1) 
-8.6880703857038295

>  <r_i_glide_erotb>  (1) 
0.53627995581458066

>  <r_i_glide_esite>  (1) 
0

>  <r_i_glide_evdw>  (1) 
-8.6121601634804108

>  <r_i_glide_gscore>  (1) 
-2.5331729528821083

>  <r_i_glide_gscore_strain>  (1) 
0

>  <r_i_glide_hbond>  (1) 
0

>  <r_i_glide_ligand_efficiency>  (1) 
-0.14073183071567269

>  <r_i_glide_ligand_efficiency_ln>  (1) 
-0.65113904544999002

>  <r_i_glide_ligand_efficiency_sa>  (1) 
-0.36882173423936249

>  <r_i_glide_lipo>  (1) 
-0.9453327846089582

>  <r_i_glide_metal>  (1) 
-0

>  <r_i_glide_rewards>  (1) 
-1.6821255825801977

>  <r_lp_Energy>  (1) 
23.887898999999997

>  <r_lp_tautomer_probability>  (1) 
1

>  <s_epik_cmdline>  (1) 
J2VwaWtfcHl0aG9uJywgJy1waHQnLCAnMS4wJywgJy1waCcsICc3LjQnLCAnLXRuJywgJzgnLCAnLW1hJywgJzUwMCcsICctaW1hZScsICc8aW5maWxlLm1hZT4nLCAnLW9tYWUnLCAnPG91dGZpbGUubWFlPic=

>  <s_epik_input>  (1) 
W0NIMl0xW0NIMl1bQ0hdMVtDQEBIXShDKEYpKEYpW0NIM10pW0NAQF0yM1tDQEhdKFtDSDJdMylbQ0gyXVtDQEBIXShbQ0gyXTIpQyhbQ0gzXSkoW0NIM10pW0NIM10=

>  <s_glide_docking_method>  (1) 
confgen

>  <s_i_glide_gridfile>  (1) 
gpcr_drd2_6luq_protein_autoprepared_prepared

>  <s_lp_Force_Field>  (1) 
S-OPLS

>  <s_lp_Variant>  (1) 
DiffSBDD_54-1

>  <s_m_source_file>  (1) 
generated_generic_title2_ligand_DiffSBDD_2026-06-23_prepared.sdf

>  <GenAI_Model>  (1) 
DiffSBDD

>  <Protein>  (1) 
generic_title2

$$$$
DiffSBDD_74
     RDKit          3D

  0  0  0  0  0  0  0  0  0  0999 V3000
M  V30 BEGIN CTAB
M  V30 COUNTS 92 99 0 0 1
M  V30 BEGIN ATOM
M  V30 1 C -0.141956 19.839726 5.418674 0 CFG=2
M  V30 2 N -1.371907 17.865508 -3.417593 0
M  V30 3 C -2.217817 18.458165 -5.621414 0
M  V30 4 C -1.434223 17.071403 -2.219446 0
M  V30 5 F 1.465125 18.817330 0.910726 0
M  V30 6 O -0.827217 22.167922 5.684608 0
M  V30 7 O -2.525341 21.323313 1.220924 0
M  V30 8 C -0.208861 18.781296 -3.630146 0 CFG=1
M  V30 9 C -3.803400 17.214081 -8.647951 0
M  V30 10 C -1.188412 20.944227 5.066160 0 CFG=1
M  V30 11 C -3.741553 20.322796 3.777871 0 CFG=2
M  V30 12 C -2.418543 17.799112 -4.439760 0
M  V30 13 C -0.267273 22.384493 -1.441659 0
M  V30 14 C -0.932754 19.636959 2.887537 0 CFG=1
M  V30 15 C -3.822124 17.341723 -7.231180 0
M  V30 16 C 0.602355 19.589437 1.561142 0
M  V30 17 C -1.237352 17.693608 1.066700 0 CFG=2
M  V30 18 C -3.450946 20.245955 1.304731 0 CFG=1
M  V30 19 C 0.475829 19.163188 3.058700 0 CFG=1
M  V30 20 O -0.450600 17.452290 -1.368093 0
M  V30 21 O -5.555713 18.934850 4.365976 0
M  V30 22 O -2.984623 22.516038 4.423985 0
M  V30 23 C -4.327298 19.397647 4.865493 0 CFG=1
M  V30 24 S -0.247092 20.570640 -1.458324 0 CHG=1
M  V30 25 C -4.779581 20.450797 0.611618 0
M  V30 26 C -3.501945 18.170180 5.266443 0
M  V30 27 C 0.387725 19.961119 6.846660 0
M  V30 28 N -3.827618 17.190240 -9.802328 0
M  V30 29 C -0.924556 19.186705 -5.947343 0
M  V30 30 C -3.680887 17.041801 -4.143495 0
M  V30 31 C -0.520512 22.285021 2.947619 0
M  V30 32 C -1.227652 21.040782 3.544872 0 CFG=2
M  V30 33 O -2.248011 16.191370 -1.949776 0
M  V30 34 C -2.711187 17.236669 0.964567 0
M  V30 35 C -1.919477 20.210147 -0.859958 0
M  V30 36 C 1.029286 19.737027 4.376590 0
M  V30 37 F 0.976481 20.845248 1.354425 0
M  V30 38 C -0.951116 19.245612 1.382636 0 CFG=1
M  V30 39 C -4.411200 16.403933 -6.490797 0
M  V30 40 C -0.394926 16.956299 -0.028871 0
M  V30 41 C -2.051386 20.100848 0.644113 0 CFG=1
M  V30 42 C 0.227485 18.727087 -5.081486 0
M  V30 43 O -3.545861 19.574373 2.571936 0
M  V30 44 C -0.505143 20.246844 -3.216999 0
M  V30 45 C -3.267549 18.588297 -6.669999 0
M  V30 46 C -2.533024 21.173083 4.249249 0 CFG=1
M  V30 47 C -4.524437 16.433005 -5.033433 0
M  V30 48 H -0.646818 18.877530 5.409548 0
M  V30 49 H -1.463188 22.796845 5.360142 0
M  V30 50 H 0.687784 18.450957 -3.104950 0
M  V30 51 H -4.540153 21.024796 3.526947 0
M  V30 52 H -0.321963 22.754373 -0.418485 0
M  V30 53 H -1.122233 22.772019 -1.995387 0
M  V30 54 H 0.643663 22.773184 -1.898109 0
M  V30 55 H -1.520763 18.876573 3.395589 0
M  V30 56 H -0.934944 17.139236 1.952507 0
M  V30 57 H 0.520952 18.076332 3.121173 0
M  V30 58 H -5.382230 18.529260 3.528927 0
M  V30 59 H -3.744791 22.508877 4.987602 0
M  V30 60 H -4.543544 19.982696 5.760149 0
M  V30 61 H -5.393642 21.129703 1.201039 0
M  V30 62 H -5.302863 19.499740 0.514216 0
M  V30 63 H -4.653741 20.884218 -0.379032 0
M  V30 64 H -2.653254 18.456810 5.878714 0
M  V30 65 H -3.147141 17.608693 4.402692 0
M  V30 66 H -4.095780 17.488202 5.876368 0
M  V30 67 H 1.026692 20.834922 6.980929 0
M  V30 68 H 0.955149 19.077349 7.139555 0
M  V30 69 H -0.470995 20.054576 7.500782 0
M  V30 70 H -0.660072 18.992530 -6.987853 0
M  V30 71 H -1.088754 20.261797 -5.870414 0
M  V30 72 H -3.946442 16.916571 -3.112887 0
M  V30 73 H -0.625545 22.382946 1.874069 0
M  V30 74 H 0.539306 22.293781 3.189651 0
M  V30 75 H -0.916174 23.209999 3.354522 0
M  V30 76 H -3.265529 17.737874 0.173354 0
M  V30 77 H -3.245672 17.355247 1.903485 0
M  V30 78 H -2.767270 16.169282 0.747924 0
M  V30 79 H -2.577213 20.995768 -1.229226 0
M  V30 80 H -2.312741 19.303190 -1.294435 0
M  V30 81 H 1.531021 20.692781 4.238721 0
M  V30 82 H 1.775410 19.078938 4.814975 0
M  V30 83 H -4.863299 15.569952 -7.009145 0
M  V30 84 H 0.646321 16.906976 0.270106 0
M  V30 85 H -0.686054 15.905119 -0.036176 0
M  V30 86 H 1.112210 19.340450 -5.258359 0
M  V30 87 H 0.503791 17.705443 -5.339712 0
M  V30 88 H 0.175413 20.910760 -3.745444 0
M  V30 89 H -1.508516 20.557888 -3.509477 0
M  V30 90 H -4.091904 19.163101 -6.246145 0
M  V30 91 H -2.893155 19.199613 -7.492937 0
M  V30 92 H -5.347622 15.878763 -4.607000 0
M  V30 END ATOM
M  V30 BEGIN BOND
M  V30 1 1 4 2
M  V30 2 1 8 2
M  V30 3 1 10 1
M  V30 4 1 10 6 CFG=1
M  V30 5 1 12 2
M  V30 6 2 12 3
M  V30 7 1 15 9
M  V30 8 1 16 5
M  V30 9 1 18 7
M  V30 10 1 19 14
M  V30 11 1 19 16
M  V30 12 1 20 4
M  V30 13 1 23 11
M  V30 14 1 23 21
M  V30 15 1 24 13 CFG=3
M  V30 16 1 18 25 CFG=3
M  V30 17 1 26 23
M  V30 18 1 27 1
M  V30 19 3 28 9
M  V30 20 1 29 3
M  V30 21 1 30 12
M  V30 22 1 32 10
M  V30 23 1 32 14
M  V30 24 1 32 31 CFG=3
M  V30 25 2 33 4
M  V30 26 1 34 17
M  V30 27 1 35 24
M  V30 28 1 36 1
M  V30 29 1 36 19
M  V30 30 1 37 16
M  V30 31 1 38 14
M  V30 32 1 38 16 CFG=3
M  V30 33 1 38 17
M  V30 34 2 39 15
M  V30 35 1 40 17
M  V30 36 1 40 20
M  V30 37 1 41 7 CFG=1
M  V30 38 1 41 18
M  V30 39 1 41 35
M  V30 40 1 41 38
M  V30 41 1 42 8
M  V30 42 1 42 29
M  V30 43 1 43 11
M  V30 44 1 43 18
M  V30 45 1 44 8
M  V30 46 1 44 24
M  V30 47 1 45 3
M  V30 48 1 45 15
M  V30 49 1 46 10
M  V30 50 1 46 11
M  V30 51 1 46 22 CFG=1
M  V30 52 1 46 32
M  V30 53 2 47 30
M  V30 54 1 47 39
M  V30 55 1 1 48 CFG=1
M  V30 56 1 49 6
M  V30 57 1 8 50 CFG=1
M  V30 58 1 11 51 CFG=3
M  V30 59 1 52 13
M  V30 60 1 53 13
M  V30 61 1 54 13
M  V30 62 1 14 55 CFG=1
M  V30 63 1 17 56 CFG=1
M  V30 64 1 19 57 CFG=3
M  V30 65 1 58 21
M  V30 66 1 59 22
M  V30 67 1 23 60 CFG=1
M  V30 68 1 61 25
M  V30 69 1 62 25
M  V30 70 1 63 25
M  V30 71 1 64 26
M  V30 72 1 65 26
M  V30 73 1 66 26
M  V30 74 1 67 27
M  V30 75 1 68 27
M  V30 76 1 69 27
M  V30 77 1 70 29
M  V30 78 1 71 29
M  V30 79 1 72 30
M  V30 80 1 73 31
M  V30 81 1 74 31
M  V30 82 1 75 31
M  V30 83 1 76 34
M  V30 84 1 77 34
M  V30 85 1 78 34
M  V30 86 1 79 35
M  V30 87 1 80 35
M  V30 88 1 81 36
M  V30 89 1 82 36
M  V30 90 1 83 39
M  V30 91 1 84 40
M  V30 92 1 85 40
M  V30 93 1 86 42
M  V30 94 1 87 42
M  V30 95 1 88 44
M  V30 96 1 89 44
M  V30 97 1 90 45
M  V30 98 1 91 45
M  V30 99 1 92 47
M  V30 END BOND
M  V30 END CTAB
M  END
>  <i_epik_Tot_Q>  (1) 
1

>  <i_epik_Tot_abs_Q>  (1) 
1

>  <i_i_glide_confnum>  (1) 
2

>  <i_i_glide_lignum>  (1) 
121

>  <i_i_glide_posenum>  (1) 
111

>  <i_i_glide_rotatable_bonds>  (1) 
4

>  <i_lp_mmshare_version>  (1) 
72125

>  <i_m_source_file_index>  (1) 
75

>  <i_f3d_flags>  (1) 
0

>  <num_sample>  (1) 
100

>  <b_lp_Chiralities_Consistent>  (1) 
1

>  <r_epik_Charging_Adjusted_Penalty>  (1) 
0

>  <r_epik_Ionization_Penalty>  (1) 
2.279428951435475e-07

>  <r_epik_Ionization_Penalty_Charging>  (1) 
0

>  <r_epik_Ionization_Penalty_Neutral>  (1) 
2.279428951435475e-07

>  <r_epik_State_Penalty>  (1) 
-0

>  <r_glide_ring_energy>  (1) 
0

>  <r_i_docking_score>  (1) 
-2.5206936824401724

>  <r_i_glide_ecoul>  (1) 
-0.40197905779476911

>  <r_i_glide_eff_state_penalty>  (1) 
-0

>  <r_i_glide_einternal>  (1) 
2.9714350722412814

>  <r_i_glide_emodel>  (1) 
-18.504436697161321

>  <r_i_glide_emodel_strain>  (1) 
0.91952637967995088

>  <r_i_glide_energy>  (1) 
-18.440252549453682

>  <r_i_glide_erotb>  (1) 
0.046727806610761473

>  <r_i_glide_esite>  (1) 
0

>  <r_i_glide_evdw>  (1) 
-18.038273491658913

>  <r_i_glide_gscore>  (1) 
-2.5206936824401724

>  <r_i_glide_gscore_strain>  (1) 
0

>  <r_i_glide_hbond>  (1) 
0

>  <r_i_glide_ligand_efficiency>  (1) 
-0.053631780477450479

>  <r_i_glide_ligand_efficiency_ln>  (1) 
-0.51971483951363251

>  <r_i_glide_ligand_efficiency_sa>  (1) 
-0.19354776811129662

>  <r_i_glide_lipo>  (1) 
-1.0142382700327355

>  <r_i_glide_metal>  (1) 
-0

>  <r_i_glide_rewards>  (1) 
-0.59097268576603756

>  <r_lp_Energy>  (1) 
145.95767599999999

>  <r_lp_tautomer_probability>  (1) 
1

>  <s_epik_Chemistry_Notes>  (1) 
This compound has an ester and may undergo hydrolysis at high or low pH.

>  <s_epik_cmdline>  (1) 
J2VwaWtfcHl0aG9uJywgJy1waHQnLCAnMS4wJywgJy1waCcsICc3LjQnLCAnLXRuJywgJzgnLCAnLW1hJywgJzUwMCcsICctaW1hZScsICc8aW5maWxlLm1hZT4nLCAnLW9tYWUnLCAnPG91dGZpbGUubWFlPic=

>  <s_epik_input>  (1) 
W0NIM11bQ0BASF0xW0NIMl1bQ0BIXShDMihGKUYpW0NASF0zW0NAXTQoW0NIM10pW0NAQF0xKFtPSF0pQzQoW09IXSlbQ0BIXShbQ0BASF0oW09IXSlbQ0gzXSlPW0NAQF0oTzUpKFtDSDNdKVtDQEBdNShbQ0BdMjM2KVtDSDJdW1MrXShbQ0gzXSlbQ0gyXVtDQEhdN04oQyg9TylPW0NIMl1bQ0BASF02W0NIM10pQzg9QyhbQ0gyXVtDSDJdNylbQ0gyXUMoQyNOKT1bQ0hdW0NIXT1bQ0hdOA==

>  <s_glide_docking_method>  (1) 
confgen

>  <s_i_glide_gridfile>  (1) 
gpcr_drd2_6luq_protein_autoprepared_prepared

>  <s_lp_Force_Field>  (1) 
S-OPLS

>  <s_lp_Variant>  (1) 
DiffSBDD_74-1

>  <s_m_source_file>  (1) 
generated_generic_title2_ligand_DiffSBDD_2026-06-23_prepared.sdf

>  <GenAI_Model>  (1) 
DiffSBDD

>  <Protein>  (1) 
generic_title2

$$$$
DiffSBDD_2
     RDKit          3D

  0  0  0  0  0  0  0  0  0  0999 V3000
M  V30 BEGIN CTAB
M  V30 COUNTS 71 75 0 0 1
M  V30 BEGIN ATOM
M  V30 1 C 10.825259 0.704724 -20.513996 0
M  V30 2 N 6.943156 4.405894 -20.291162 0 CFG=1 CHG=1
M  V30 3 C 9.113860 6.744978 -20.728680 0
M  V30 4 C 4.140009 7.058816 -17.801665 0
M  V30 5 C 5.844010 8.326920 -22.134313 0
M  V30 6 C 14.221071 0.337831 -18.741855 0 CFG=1
M  V30 7 C 4.588379 8.442372 -19.924666 0
M  V30 8 O 8.636178 2.335880 -17.721313 0
M  V30 9 C 12.732423 0.343438 -19.009443 0
M  V30 10 C 7.217076 2.108310 -21.041983 0 CFG=2
M  V30 11 C 6.193943 6.570578 -19.299276 0
M  V30 12 C 8.099626 2.639654 -18.785029 0
M  V30 13 C 7.908652 6.255409 -22.868005 0
M  V30 14 C 14.784525 0.701583 -17.388803 0
M  V30 15 O 14.575356 -0.661318 -17.771842 0
M  V30 16 O 5.817350 1.937877 -20.882801 0
M  V30 17 O 6.963837 6.789994 -18.367747 0
M  V30 18 C 13.168737 1.086695 -21.420500 0
M  V30 19 C 14.603988 0.681723 -21.169007 0
M  V30 20 C 4.690801 8.426310 -21.443866 0
M  V30 21 C 4.871746 7.878264 -16.718603 0
M  V30 22 F 16.362090 0.001834 -19.845271 0
M  V30 23 C 10.447326 -0.010562 -18.216394 0
M  V30 24 C 7.610094 4.076745 -18.997237 0
M  V30 25 C 12.218648 0.702563 -20.288355 0
M  V30 26 C 7.722579 6.724552 -21.400977 0
M  V30 27 C 4.744329 7.065034 -19.234578 0 CFG=1
M  V30 28 C 9.940871 0.349379 -19.475941 0
M  V30 29 C 11.830309 -0.010014 -17.984816 0
M  V30 30 C 6.656042 5.858621 -20.598150 0 CFG=1
M  V30 31 C 8.436417 0.378232 -19.706024 0
M  V30 32 N 7.929072 1.753631 -19.805308 0
M  V30 33 C 15.068083 0.347003 -19.960692 0
M  V30 34 C 7.224186 8.203475 -21.500204 0
M  V30 35 C 7.424826 3.576126 -21.411778 0
M  V30 36 H 10.436304 0.983043 -21.482471 0
M  V30 37 H 9.813496 7.351294 -21.305549 0
M  V30 38 H 9.088377 7.171199 -19.726322 0
M  V30 39 H 9.547192 5.748287 -20.658132 0
M  V30 40 H 3.112176 7.417934 -17.866799 0
M  V30 41 H 4.060402 6.032135 -17.444727 0
M  V30 42 H 5.812288 8.320039 -23.214782 0
M  V30 43 H 3.604326 8.847723 -19.689842 0
M  V30 44 H 5.302704 9.161260 -19.522290 0
M  V30 45 H 7.556916 1.489613 -21.873452 0
M  V30 46 H 8.387919 7.028948 -23.470176 0
M  V30 47 H 8.557554 5.389064 -22.967426 0
M  V30 48 H 6.956817 6.025847 -23.348164 0
M  V30 49 H 15.829195 0.972699 -17.296885 0
M  V30 50 H 14.116831 1.068046 -16.612149 0
M  V30 51 H 5.523607 1.221231 -21.432160 0
M  V30 52 H 12.832009 0.603303 -22.338382 0
M  V30 53 H 13.124573 2.163270 -21.585855 0
M  V30 54 H 15.266525 0.673826 -22.021411 0
M  V30 55 H 3.758208 8.499438 -21.985489 0
M  V30 56 H 4.175373 8.225544 -15.956736 0
M  V30 57 H 5.630134 7.278647 -16.214722 0
M  V30 58 H 5.375417 8.754076 -17.125554 0
M  V30 59 H 9.769538 -0.279616 -17.418516 0
M  V30 60 H 6.926605 4.264281 -18.168762 0
M  V30 61 H 8.478461 4.720043 -18.855327 0
M  V30 62 H 4.175490 6.341233 -19.813568 0
M  V30 63 H 12.205354 -0.285618 -17.012591 0
M  V30 64 H 5.783073 5.803947 -21.248763 0
M  V30 65 H 7.922651 -0.130884 -18.888581 0
M  V30 66 H 8.210238 -0.199988 -20.602463 0
M  V30 67 H 7.912608 8.800363 -22.100815 0
M  V30 68 H 7.239424 8.694778 -20.529679 0
M  V30 69 H 8.485945 3.752990 -21.588166 0
M  V30 70 H 6.875422 3.803875 -22.325765 0
M  V30 71 H 6.023194 4.006298 -20.151944 0
M  V30 END ATOM
M  V30 BEGIN BOND
M  V30 1 1 9 6
M  V30 2 2 12 8
M  V30 3 1 14 6
M  V30 4 1 6 15 CFG=1
M  V30 5 1 15 14
M  V30 6 1 16 10
M  V30 7 2 17 11
M  V30 8 1 19 18
M  V30 9 2 20 5
M  V30 10 1 20 7
M  V30 11 1 21 4
M  V30 12 1 24 2
M  V30 13 1 24 12
M  V30 14 1 25 1
M  V30 15 2 25 9
M  V30 16 1 25 18
M  V30 17 1 26 3
M  V30 18 1 26 13
M  V30 19 1 27 4
M  V30 20 1 27 7
M  V30 21 1 27 11
M  V30 22 2 28 1
M  V30 23 1 28 23
M  V30 24 1 29 9
M  V30 25 2 29 23
M  V30 26 1 30 2
M  V30 27 1 30 11
M  V30 28 1 30 26
M  V30 29 1 31 28
M  V30 30 1 32 10
M  V30 31 1 32 12
M  V30 32 1 32 31
M  V30 33 1 33 6
M  V30 34 2 33 19
M  V30 35 1 33 22
M  V30 36 1 34 5
M  V30 37 1 34 26
M  V30 38 1 35 2
M  V30 39 1 35 10
M  V30 40 1 36 1
M  V30 41 1 37 3
M  V30 42 1 38 3
M  V30 43 1 39 3
M  V30 44 1 40 4
M  V30 45 1 41 4
M  V30 46 1 42 5
M  V30 47 1 43 7
M  V30 48 1 44 7
M  V30 49 1 10 45 CFG=3
M  V30 50 1 46 13
M  V30 51 1 47 13
M  V30 52 1 48 13
M  V30 53 1 49 14
M  V30 54 1 50 14
M  V30 55 1 51 16
M  V30 56 1 52 18
M  V30 57 1 53 18
M  V30 58 1 54 19
M  V30 59 1 55 20
M  V30 60 1 56 21
M  V30 61 1 57 21
M  V30 62 1 58 21
M  V30 63 1 59 23
M  V30 64 1 60 24
M  V30 65 1 61 24
M  V30 66 1 27 62 CFG=3
M  V30 67 1 63 29
M  V30 68 1 30 64 CFG=3
M  V30 69 1 65 31
M  V30 70 1 66 31
M  V30 71 1 67 34
M  V30 72 1 68 34
M  V30 73 1 69 35
M  V30 74 1 70 35
M  V30 75 1 2 71 CFG=1
M  V30 END BOND
M  V30 END CTAB
M  END
>  <i_epik_Tot_Q>  (1) 
1

>  <i_epik_Tot_abs_Q>  (1) 
1

>  <i_i_glide_confnum>  (1) 
3

>  <i_i_glide_lignum>  (1) 
6

>  <i_i_glide_posenum>  (1) 
117

>  <i_i_glide_rotatable_bonds>  (1) 
5

>  <i_lp_mmshare_version>  (1) 
72125

>  <i_m_source_file_index>  (1) 
3

>  <i_f3d_flags>  (1) 
0

>  <num_sample>  (1) 
100

>  <b_lp_Chiralities_Consistent>  (1) 
1

>  <r_epik_Charging_Adjusted_Penalty>  (1) 
2.4002963273514464

>  <r_epik_Ionization_Penalty>  (1) 
1.2026340853706476

>  <r_epik_Ionization_Penalty_Charging>  (1) 
1.2001481636757232

>  <r_epik_Ionization_Penalty_Neutral>  (1) 
0.0024859216949244217

>  <r_epik_State_Penalty>  (1) 
1.2001481636757232

>  <r_glide_ring_energy>  (1) 
0

>  <r_i_docking_score>  (1) 
-2.5117834960181651

>  <r_i_glide_ecoul>  (1) 
-0.97513806040920237

>  <r_i_glide_eff_state_penalty>  (1) 
1.2001481636757232

>  <r_i_glide_einternal>  (1) 
20.575235063413661

>  <r_i_glide_emodel>  (1) 
-24.207275670659307

>  <r_i_glide_emodel_strain>  (1) 
1.2467027959521317

>  <r_i_glide_energy>  (1) 
-29.003275202341975

>  <r_i_glide_erotb>  (1) 
0.26041846348708686

>  <r_i_glide_esite>  (1) 
0

>  <r_i_glide_evdw>  (1) 
-28.028137141932771

>  <r_i_glide_gscore>  (1) 
-3.7119316596938883

>  <r_i_glide_gscore_strain>  (1) 
0

>  <r_i_glide_hbond>  (1) 
0

>  <r_i_glide_ligand_efficiency>  (1) 
-0.071765242743376145

>  <r_i_glide_ligand_efficiency_ln>  (1) 
-0.55139222340716465

>  <r_i_glide_ligand_efficiency_sa>  (1) 
-0.23474886778036391

>  <r_i_glide_lipo>  (1) 
-1.9913759823256791

>  <r_i_glide_metal>  (1) 
-0

>  <r_i_glide_rewards>  (1) 
-0.43329657469727723

>  <r_lp_Energy>  (1) 
72.081104999999994

>  <r_lp_tautomer_probability>  (1) 
0.99995000000000001

>  <s_epik_Chemistry_Notes>  (1) 
This compound contains an acetal/aminal-like group ( X-CH(R)-Y where X, Y are N, S, or O) that may be acid/base labile, releasing an aldehyde.

>  <s_epik_cmdline>  (1) 
J2VwaWtfcHl0aG9uJywgJy1waHQnLCAnMS4wJywgJy1waCcsICc3LjQnLCAnLXRuJywgJzgnLCAnLW1hJywgJzUwMCcsICctaW1hZScsICc8aW5maWxlLm1hZT4nLCAnLW9tYWUnLCAnPG91dGZpbGUubWFlPic=

>  <s_epik_input>  (1) 
TzFbQ0gyXVtDQF0xMmMzYyhbQ0gyXVtDSF09QzJGKVtjSF1jKFtjSF1bY0hdMylbQ0gyXU4oW0NAQEhdKFtPSF0pW0NIMl00KUMoPU8pW0NIMl1ONFtDQEhdKEM1KFtDSDNdKVtDSDNdKUMoPU8pW0NAQEhdKFtDSDJdW0NIM10pW0NIMl0vW0NIXT1bQ0hdXFtDSDJdNQ==

>  <s_glide_docking_method>  (1) 
confgen

>  <s_i_glide_gridfile>  (1) 
gpcr_drd2_6luq_protein_autoprepared_prepared

>  <s_lp_Force_Field>  (1) 
S-OPLS

>  <s_lp_Variant>  (1) 
DiffSBDD_2-3

>  <s_m_source_file>  (1) 
generated_generic_title2_ligand_DiffSBDD_2026-06-23_prepared.sdf

>  <GenAI_Model>  (1) 
DiffSBDD

>  <Protein>  (1) 
generic_title2

$$$$
DiffSBDD_74
     RDKit          3D

  0  0  0  0  0  0  0  0  0  0999 V3000
M  V30 BEGIN CTAB
M  V30 COUNTS 92 99 0 0 1
M  V30 BEGIN ATOM
M  V30 1 C 22.918178 21.259085 -8.739180 0 CFG=2
M  V30 2 N 19.444245 20.587441 -17.171935 0
M  V30 3 C 17.790711 19.855172 -18.799206 0
M  V30 4 C 20.753994 20.496295 -16.595986 0
M  V30 5 F 20.970335 23.168067 -12.861770 0
M  V30 6 O 21.218216 20.376916 -7.192205 0
M  V30 7 O 19.212615 19.122485 -11.409350 0
M  V30 8 C 18.551390 21.722476 -16.780264 0 CFG=1
M  V30 9 C 17.380442 18.784120 -22.207444 0
M  V30 10 C 21.825050 20.171819 -8.466845 0 CFG=1
M  V30 11 C 21.748676 17.813607 -10.129224 0 CFG=2
M  V30 12 C 18.975508 19.618582 -18.162706 0
M  V30 13 C 16.796844 21.447106 -12.928737 0
M  V30 14 C 21.557442 20.653730 -10.963484 0 CFG=1
M  V30 15 C 17.977502 18.553775 -20.932784 0
M  V30 16 C 20.778779 22.237540 -11.935418 0
M  V30 17 C 22.076050 20.528775 -13.567770 0 CFG=2
M  V30 18 C 20.091915 18.185260 -12.018567 0 CFG=1
M  V30 19 C 22.026926 22.065533 -11.006374 0 CFG=1
M  V30 20 O 20.889889 21.430248 -15.627745 0
M  V30 21 O 23.744273 17.590240 -8.724113 0
M  V30 22 O 20.239458 18.294667 -8.292746 0
M  V30 23 C 23.294958 17.684797 -10.059711 0 CFG=1
M  V30 24 S 18.284804 21.511526 -13.964672 0 CHG=1
M  V30 25 C 19.440437 16.889303 -12.439861 0
M  V30 26 C 23.820028 16.469689 -10.830011 0
M  V30 27 C 23.643931 21.717479 -7.460697 0
M  V30 28 N 16.920969 18.942775 -23.257599 0
M  V30 29 C 16.969509 21.110338 -18.565462 0
M  V30 30 C 19.799823 18.394585 -18.437198 0
M  V30 31 C 19.484228 20.903564 -9.268492 0
M  V30 32 C 20.841779 20.236475 -9.627750 0 CFG=2
M  V30 33 O 21.642921 19.701196 -16.889409 0
M  V30 34 C 22.414139 19.086327 -14.010779 0
M  V30 35 C 18.903933 19.822159 -13.742995 0
M  V30 36 C 22.381900 22.502712 -9.573258 0
M  V30 37 F 19.637789 22.527952 -11.323701 0
M  V30 38 C 20.982077 20.721418 -12.402427 0 CFG=1
M  V30 39 C 19.182730 17.990204 -20.859760 0
M  V30 40 C 22.051683 21.476831 -14.809428 0
M  V30 41 C 19.860502 19.623545 -12.579954 0 CFG=1
M  V30 42 C 17.798786 22.236265 -17.994659 0
M  V30 43 O 21.429223 18.061514 -11.507362 0
M  V30 44 C 17.568385 21.386758 -15.627711 0
M  V30 45 C 17.166205 18.876987 -19.736732 0
M  V30 46 C 21.202312 18.880355 -9.150629 0 CFG=1
M  V30 47 C 19.891930 17.702535 -19.614159 0
M  V30 48 H 23.696468 20.775505 -9.330778 0
M  V30 49 H 20.899565 21.266316 -7.158184 0
M  V30 50 H 19.115624 22.606689 -16.481440 0
M  V30 51 H 21.300006 16.848022 -9.895092 0
M  V30 52 H 17.072785 21.368562 -11.877107 0
M  V30 53 H 16.175576 20.590074 -13.185048 0
M  V30 54 H 16.205390 22.351953 -13.064894 0
M  V30 55 H 22.482047 20.099902 -11.062953 0
M  V30 56 H 23.038783 20.805180 -13.145846 0
M  V30 57 H 22.925164 22.176369 -11.612147 0
M  V30 58 H 24.687184 17.521040 -8.723145 0
M  V30 59 H 20.271517 18.829143 -7.506345 0
M  V30 60 H 23.775547 18.566914 -10.476217 0
M  V30 61 H 19.375410 16.219565 -11.584892 0
M  V30 62 H 20.017939 16.407491 -13.229191 0
M  V30 63 H 18.425009 17.062894 -12.785025 0
M  V30 64 H 23.543072 16.518620 -11.883044 0
M  V30 65 H 23.409099 15.550632 -10.422741 0
M  V30 66 H 24.907110 16.403897 -10.779646 0
M  V30 67 H 22.991596 22.297079 -6.807180 0
M  V30 68 H 24.502214 22.344494 -7.702844 0
M  V30 69 H 24.014369 20.862341 -6.893971 0
M  V30 70 H 16.575437 21.460812 -19.517327 0
M  V30 71 H 16.111650 20.873064 -17.935761 0
M  V30 72 H 20.429223 18.036513 -17.645327 0
M  V30 73 H 18.740238 20.863453 -10.055923 0
M  V30 74 H 19.622519 21.946568 -8.992786 0
M  V30 75 H 19.006002 20.429323 -8.412863 0
M  V30 76 H 21.550387 18.523360 -14.360647 0
M  V30 77 H 22.912109 18.525046 -13.224719 0
M  V30 78 H 23.133585 19.093800 -14.829734 0
M  V30 79 H 18.031326 19.190254 -13.602168 0
M  V30 80 H 19.381746 19.454984 -14.642017 0
M  V30 81 H 21.547919 22.992537 -9.073635 0
M  V30 82 H 23.176645 23.243592 -9.621013 0
M  V30 83 H 19.663314 17.710314 -21.786685 0
M  V30 84 H 22.212908 22.509955 -14.515234 0
M  V30 85 H 22.923634 21.266881 -15.431112 0
M  V30 86 H 17.165132 23.089407 -17.745777 0
M  V30 87 H 18.508464 22.589229 -18.745273 0
M  V30 88 H 16.789547 22.143224 -15.654178 0
M  V30 89 H 17.076177 20.422819 -15.763014 0
M  V30 90 H 17.000694 17.951795 -19.185389 0
M  V30 91 H 16.168731 19.190227 -20.036110 0
M  V30 92 H 20.596754 16.884077 -19.637462 0
M  V30 END ATOM
M  V30 BEGIN BOND
M  V30 1 1 4 2
M  V30 2 1 8 2
M  V30 3 1 10 1
M  V30 4 1 10 6 CFG=1
M  V30 5 1 12 2
M  V30 6 2 12 3
M  V30 7 1 15 9
M  V30 8 1 16 5
M  V30 9 1 18 7
M  V30 10 1 19 14
M  V30 11 1 19 16
M  V30 12 1 20 4
M  V30 13 1 23 11
M  V30 14 1 23 21
M  V30 15 1 24 13 CFG=1
M  V30 16 1 18 25 CFG=3
M  V30 17 1 26 23
M  V30 18 1 27 1
M  V30 19 3 28 9
M  V30 20 1 29 3
M  V30 21 1 30 12
M  V30 22 1 32 10
M  V30 23 1 32 14
M  V30 24 1 32 31 CFG=1
M  V30 25 2 33 4
M  V30 26 1 34 17
M  V30 27 1 35 24
M  V30 28 1 36 1
M  V30 29 1 36 19
M  V30 30 1 37 16
M  V30 31 1 38 14
M  V30 32 1 38 16 CFG=3
M  V30 33 1 38 17
M  V30 34 2 39 15
M  V30 35 1 40 17
M  V30 36 1 40 20
M  V30 37 1 41 7 CFG=1
M  V30 38 1 41 18
M  V30 39 1 41 35
M  V30 40 1 41 38
M  V30 41 1 42 8
M  V30 42 1 42 29
M  V30 43 1 43 11
M  V30 44 1 43 18
M  V30 45 1 44 8
M  V30 46 1 44 24
M  V30 47 1 45 3
M  V30 48 1 45 15
M  V30 49 1 46 10
M  V30 50 1 46 11
M  V30 51 1 46 22 CFG=1
M  V30 52 1 46 32
M  V30 53 2 47 30
M  V30 54 1 47 39
M  V30 55 1 1 48 CFG=3
M  V30 56 1 49 6
M  V30 57 1 8 50 CFG=1
M  V30 58 1 11 51 CFG=1
M  V30 59 1 52 13
M  V30 60 1 53 13
M  V30 61 1 54 13
M  V30 62 1 14 55 CFG=3
M  V30 63 1 17 56 CFG=1
M  V30 64 1 19 57 CFG=3
M  V30 65 1 58 21
M  V30 66 1 59 22
M  V30 67 1 23 60 CFG=3
M  V30 68 1 61 25
M  V30 69 1 62 25
M  V30 70 1 63 25
M  V30 71 1 64 26
M  V30 72 1 65 26
M  V30 73 1 66 26
M  V30 74 1 67 27
M  V30 75 1 68 27
M  V30 76 1 69 27
M  V30 77 1 70 29
M  V30 78 1 71 29
M  V30 79 1 72 30
M  V30 80 1 73 31
M  V30 81 1 74 31
M  V30 82 1 75 31
M  V30 83 1 76 34
M  V30 84 1 77 34
M  V30 85 1 78 34
M  V30 86 1 79 35
M  V30 87 1 80 35
M  V30 88 1 81 36
M  V30 89 1 82 36
M  V30 90 1 83 39
M  V30 91 1 84 40
M  V30 92 1 85 40
M  V30 93 1 86 42
M  V30 94 1 87 42
M  V30 95 1 88 44
M  V30 96 1 89 44
M  V30 97 1 90 45
M  V30 98 1 91 45
M  V30 99 1 92 47
M  V30 END BOND
M  V30 END CTAB
M  END
>  <i_epik_Tot_Q>  (1) 
1

>  <i_epik_Tot_abs_Q>  (1) 
1

>  <i_i_glide_confnum>  (1) 
1

>  <i_i_glide_lignum>  (1) 
121

>  <i_i_glide_posenum>  (1) 
78

>  <i_i_glide_rotatable_bonds>  (1) 
4

>  <i_lp_mmshare_version>  (1) 
72125

>  <i_m_source_file_index>  (1) 
75

>  <i_f3d_flags>  (1) 
0

>  <num_sample>  (1) 
100

>  <b_lp_Chiralities_Consistent>  (1) 
1

>  <r_epik_Charging_Adjusted_Penalty>  (1) 
0

>  <r_epik_Ionization_Penalty>  (1) 
2.279428951435475e-07

>  <r_epik_Ionization_Penalty_Charging>  (1) 
0

>  <r_epik_Ionization_Penalty_Neutral>  (1) 
2.279428951435475e-07

>  <r_epik_State_Penalty>  (1) 
-0

>  <r_glide_ring_energy>  (1) 
0

>  <r_i_docking_score>  (1) 
-2.4759087352772875

>  <r_i_glide_ecoul>  (1) 
-2.0173359112016329

>  <r_i_glide_eff_state_penalty>  (1) 
-0

>  <r_i_glide_einternal>  (1) 
0.97359832689960557

>  <r_i_glide_emodel>  (1) 
-26.357204366454607

>  <r_i_glide_emodel_strain>  (1) 
0.34321462391804403

>  <r_i_glide_energy>  (1) 
-24.761664205648895

>  <r_i_glide_erotb>  (1) 
0.046727806610761473

>  <r_i_glide_esite>  (1) 
-0.017415123171574599

>  <r_i_glide_evdw>  (1) 
-22.744328294447261

>  <r_i_glide_gscore>  (1) 
-2.4759087352772875

>  <r_i_glide_gscore_strain>  (1) 
0

>  <r_i_glide_hbond>  (1) 
0

>  <r_i_glide_ligand_efficiency>  (1) 
-0.052678909261218883

>  <r_i_glide_ligand_efficiency_ln>  (1) 
-0.51048111080255265

>  <r_i_glide_ligand_efficiency_sa>  (1) 
-0.19010902161514656

>  <r_i_glide_lipo>  (1) 
-0.83432604742363414

>  <r_i_glide_metal>  (1) 
-0

>  <r_i_glide_rewards>  (1) 
-0.23107856989023251

>  <r_lp_Energy>  (1) 
145.95767599999999

>  <r_lp_tautomer_probability>  (1) 
1

>  <s_epik_Chemistry_Notes>  (1) 
This compound has an ester and may undergo hydrolysis at high or low pH.

>  <s_epik_cmdline>  (1) 
J2VwaWtfcHl0aG9uJywgJy1waHQnLCAnMS4wJywgJy1waCcsICc3LjQnLCAnLXRuJywgJzgnLCAnLW1hJywgJzUwMCcsICctaW1hZScsICc8aW5maWxlLm1hZT4nLCAnLW9tYWUnLCAnPG91dGZpbGUubWFlPic=

>  <s_epik_input>  (1) 
W0NIM11bQ0BASF0xW0NIMl1bQ0BIXShDMihGKUYpW0NASF0zW0NAXTQoW0NIM10pW0NAQF0xKFtPSF0pQzQoW09IXSlbQ0BIXShbQ0BASF0oW09IXSlbQ0gzXSlPW0NAQF0oTzUpKFtDSDNdKVtDQEBdNShbQ0BdMjM2KVtDSDJdW1MrXShbQ0gzXSlbQ0gyXVtDQEhdN04oQyg9TylPW0NIMl1bQ0BASF02W0NIM10pQzg9QyhbQ0gyXVtDSDJdNylbQ0gyXUMoQyNOKT1bQ0hdW0NIXT1bQ0hdOA==

>  <s_glide_docking_method>  (1) 
confgen

>  <s_i_glide_gridfile>  (1) 
gpcr_drd2_6luq_protein_autoprepared_prepared

>  <s_lp_Force_Field>  (1) 
S-OPLS

>  <s_lp_Variant>  (1) 
DiffSBDD_74-1

>  <s_m_source_file>  (1) 
generated_generic_title2_ligand_DiffSBDD_2026-06-23_prepared.sdf

>  <GenAI_Model>  (1) 
DiffSBDD

>  <Protein>  (1) 
generic_title2

$$$$
DiffSBDD_69
     RDKit          3D

  0  0  0  0  0  0  0  0  0  0999 V3000
M  V30 BEGIN CTAB
M  V30 COUNTS 68 71 0 0 1
M  V30 BEGIN ATOM
M  V30 1 C 14.305028 6.340991 -17.897503 0
M  V30 2 C 15.460900 1.713963 -19.445820 0 CFG=1
M  V30 3 C 17.060240 1.577135 -23.464900 0
M  V30 4 C 12.985671 3.603662 -17.848236 0 CFG=1
M  V30 5 C 16.244276 7.647134 -19.126215 0
M  V30 6 C 13.709789 0.595311 -17.831080 0
M  V30 7 F 16.232058 9.933899 -19.732538 0
M  V30 8 C 15.072727 7.714605 -18.132787 0 CFG=1
M  V30 9 C 13.945224 1.444520 -19.106364 0 CFG=1
M  V30 10 C 14.365204 3.945194 -17.284210 0
M  V30 11 C 17.482260 1.021108 -22.125041 0
M  V30 12 S 11.894018 5.032634 -18.086150 0
M  V30 13 C 12.712643 7.590195 -18.765075 0
M  V30 14 C 17.018525 8.968918 -19.256884 0
M  V30 15 C 17.282201 2.958001 -22.876768 0
M  V30 16 C 13.026968 6.367343 -18.260844 0
M  V30 17 C 20.552746 2.954138 -21.523934 0
M  V30 18 C 17.165386 2.369588 -21.431065 0
M  V30 19 C 13.775426 8.365521 -18.729354 0
M  V30 20 F 17.501977 9.340800 -18.071283 0
M  V30 21 C 16.202411 0.357063 -19.375230 0
M  V30 22 C 19.398237 3.717222 -20.854887 0
M  V30 23 C 21.728071 3.868394 -21.885011 0
M  V30 24 C 12.976160 3.350942 -20.490860 0
M  V30 25 C 15.335904 4.016963 -20.708632 0
M  V30 26 F 18.038066 8.799553 -20.097636 0
M  V30 27 N 14.037270 4.330916 -20.603296 0
M  V30 28 C 15.722326 2.502675 -20.797190 0 CFG=2
M  V30 29 C 12.978176 2.660977 -19.109364 0 CFG=2
M  V30 30 C 18.241624 2.810519 -20.385079 0
M  V30 31 O 16.207299 4.882234 -20.749639 0
M  V30 32 C 14.942580 5.164703 -17.326306 0
M  V30 33 H 15.883989 2.318026 -18.650477 0
M  V30 34 H 17.759570 1.296987 -24.243245 0
M  V30 35 H 16.021092 1.366272 -23.720988 0
M  V30 36 H 12.512141 3.045790 -17.039467 0
M  V30 37 H 16.937255 6.868466 -18.806421 0
M  V30 38 H 15.876697 7.348510 -20.107718 0
M  V30 39 H 14.233642 0.995749 -16.964236 0
M  V30 40 H 12.651218 0.544846 -17.574016 0
M  V30 41 H 14.029210 -0.438409 -17.963554 0
M  V30 42 H 15.342235 8.177843 -17.185474 0
M  V30 43 H 13.587943 0.809807 -19.919307 0
M  V30 44 H 14.908651 3.128428 -16.836775 0
M  V30 45 H 18.545837 0.790252 -22.101071 0
M  V30 46 H 16.890809 0.152396 -21.849739 0
M  V30 47 H 11.741165 7.881413 -19.136201 0
M  V30 48 H 16.511117 3.670361 -23.169508 0
M  V30 49 H 18.260539 3.335502 -23.165522 0
M  V30 50 H 20.906473 2.174895 -20.847045 0
M  V30 51 H 20.205288 2.444906 -22.422171 0
M  V30 52 H 13.779572 9.390086 -19.072755 0
M  V30 53 H 15.755010 -0.379292 -20.043021 0
M  V30 54 H 17.263386 0.412182 -19.588450 0
M  V30 55 H 16.170230 -0.066460 -18.382788 0
M  V30 56 H 19.031557 4.527571 -21.484775 0
M  V30 57 H 19.808601 4.218013 -19.978970 0
M  V30 58 H 22.530951 3.302797 -22.358148 0
M  V30 59 H 21.417862 4.651516 -22.577326 0
M  V30 60 H 22.139829 4.349292 -20.996739 0
M  V30 61 H 12.990436 2.632440 -21.310350 0
M  V30 62 H 12.038180 3.888657 -20.630437 0
M  V30 63 H 13.777958 5.305806 -20.557709 0
M  V30 64 H 15.055741 2.055993 -21.532687 0
M  V30 65 H 11.985069 2.208957 -19.074593 0
M  V30 66 H 17.772887 3.329646 -19.553878 0
M  V30 67 H 18.699812 1.935612 -19.929460 0
M  V30 68 H 15.935662 5.272667 -16.916748 0
M  V30 END ATOM
M  V30 BEGIN BOND
M  V30 1 1 8 1
M  V30 2 1 8 5
M  V30 3 1 9 2
M  V30 4 1 9 6
M  V30 5 1 10 4
M  V30 6 1 11 3
M  V30 7 1 12 4
M  V30 8 1 14 5
M  V30 9 1 14 7
M  V30 10 1 15 3
M  V30 11 2 16 1
M  V30 12 1 16 12
M  V30 13 1 16 13
M  V30 14 1 18 11
M  V30 15 1 18 15
M  V30 16 1 19 8
M  V30 17 2 19 13
M  V30 18 1 20 14
M  V30 19 1 21 2
M  V30 20 1 22 17
M  V30 21 1 23 17
M  V30 22 1 26 14
M  V30 23 1 27 24
M  V30 24 1 27 25
M  V30 25 1 28 2
M  V30 26 1 28 18
M  V30 27 1 28 25
M  V30 28 1 29 4
M  V30 29 1 29 9
M  V30 30 1 29 24
M  V30 31 1 30 18
M  V30 32 1 30 22
M  V30 33 2 31 25
M  V30 34 1 32 1
M  V30 35 2 32 10
M  V30 36 1 2 33 CFG=1
M  V30 37 1 34 3
M  V30 38 1 35 3
M  V30 39 1 4 36 CFG=1
M  V30 40 1 37 5
M  V30 41 1 38 5
M  V30 42 1 39 6
M  V30 43 1 40 6
M  V30 44 1 41 6
M  V30 45 1 8 42 CFG=1
M  V30 46 1 9 43 CFG=3
M  V30 47 1 44 10
M  V30 48 1 45 11
M  V30 49 1 46 11
M  V30 50 1 47 13
M  V30 51 1 48 15
M  V30 52 1 49 15
M  V30 53 1 50 17
M  V30 54 1 51 17
M  V30 55 1 52 19
M  V30 56 1 53 21
M  V30 57 1 54 21
M  V30 58 1 55 21
M  V30 59 1 56 22
M  V30 60 1 57 22
M  V30 61 1 58 23
M  V30 62 1 59 23
M  V30 63 1 60 23
M  V30 64 1 61 24
M  V30 65 1 62 24
M  V30 66 1 63 27
M  V30 67 1 28 64 CFG=3
M  V30 68 1 29 65 CFG=1
M  V30 69 1 66 30
M  V30 70 1 67 30
M  V30 71 1 68 32
M  V30 END BOND
M  V30 END CTAB
M  END
>  <i_epik_Tot_Q>  (1) 
0

>  <i_epik_Tot_abs_Q>  (1) 
0

>  <i_i_glide_confnum>  (1) 
123

>  <i_i_glide_lignum>  (1) 
112

>  <i_i_glide_posenum>  (1) 
368

>  <i_i_glide_rotatable_bonds>  (1) 
7

>  <i_lp_mmshare_version>  (1) 
72125

>  <i_m_source_file_index>  (1) 
70

>  <i_f3d_flags>  (1) 
0

>  <num_sample>  (1) 
100

>  <b_lp_Chiralities_Consistent>  (1) 
1

>  <r_epik_Charging_Adjusted_Penalty>  (1) 
0

>  <r_epik_Ionization_Penalty>  (1) 
2.8523950136144186e-08

>  <r_epik_Ionization_Penalty_Charging>  (1) 
0

>  <r_epik_Ionization_Penalty_Neutral>  (1) 
2.8523950136144186e-08

>  <r_epik_State_Penalty>  (1) 
-0

>  <r_glide_ring_energy>  (1) 
0.00015063106996441122

>  <r_i_docking_score>  (1) 
-2.4418785858049104

>  <r_i_glide_ecoul>  (1) 
0.13242828448473434

>  <r_i_glide_eff_state_penalty>  (1) 
-0

>  <r_i_glide_einternal>  (1) 
2.2085920115553357

>  <r_i_glide_emodel>  (1) 
-23.829279181277563

>  <r_i_glide_emodel_strain>  (1) 
0

>  <r_i_glide_energy>  (1) 
-22.215089697820076

>  <r_i_glide_erotb>  (1) 
0.46147465592596376

>  <r_i_glide_esite>  (1) 
0

>  <r_i_glide_evdw>  (1) 
-22.347517982304812

>  <r_i_glide_gscore>  (1) 
-2.4418785858049104

>  <r_i_glide_gscore_strain>  (1) 
0

>  <r_i_glide_hbond>  (1) 
0

>  <r_i_glide_ligand_efficiency>  (1) 
-0.076308705806403448

>  <r_i_glide_ligand_efficiency_ln>  (1) 
-0.54680317845800297

>  <r_i_glide_ligand_efficiency_sa>  (1) 
-0.24226503974283342

>  <r_i_glide_lipo>  (1) 
-1.1044909290436111

>  <r_i_glide_metal>  (1) 
-0

>  <r_i_glide_rewards>  (1) 
-0.70135065624473258

>  <r_lp_Energy>  (1) 
50.695834999999995

>  <r_lp_tautomer_probability>  (1) 
1

>  <s_epik_cmdline>  (1) 
J2VwaWtfcHl0aG9uJywgJy1waHQnLCAnMS4wJywgJy1waCcsICc3LjQnLCAnLXRuJywgJzgnLCAnLW1hJywgJzUwMCcsICctaW1hZScsICc8aW5maWxlLm1hZT4nLCAnLW9tYWUnLCAnPG91dGZpbGUubWFlPic=

>  <s_epik_input>  (1) 
RkMoRikoRilbQ0gyXVtDQEhdMVtDSF09W0NIXUMoPUMxMilTW0NASF0oW0NIXT1bQ0hdMilbQ0BIXShbQ0BIXShbQ0gzXSlbQ0BIXTNbQ0gzXSlbQ0gyXVtOSF1DKD1PKVtDQEhdM0M0KFtDSDJdW0NIMl1bQ0gyXTQpW0NIMl1bQ0gyXVtDSDJdW0NIM10=

>  <s_glide_docking_method>  (1) 
confgen

>  <s_i_glide_gridfile>  (1) 
gpcr_drd2_6luq_protein_autoprepared_prepared

>  <s_lp_Force_Field>  (1) 
S-OPLS

>  <s_lp_Variant>  (1) 
DiffSBDD_69-1

>  <s_m_source_file>  (1) 
generated_generic_title2_ligand_DiffSBDD_2026-06-23_prepared.sdf

>  <GenAI_Model>  (1) 
DiffSBDD

>  <Protein>  (1) 
generic_title2

$$$$
DiffSBDD_2
     RDKit          3D

  0  0  0  0  0  0  0  0  0  0999 V3000
M  V30 BEGIN CTAB
M  V30 COUNTS 71 75 0 0 1
M  V30 BEGIN ATOM
M  V30 1 C 7.122148 5.429112 -18.817504 0
M  V30 2 N 12.863487 5.747853 -19.027117 0 CFG=1 CHG=1
M  V30 3 C 14.694792 6.363298 -21.823224 0
M  V30 4 C 16.824138 5.215258 -16.725974 0
M  V30 5 C 15.601496 9.131573 -19.280402 0
M  V30 6 C 4.912984 6.437690 -21.809180 0 CFG=1
M  V30 7 C 16.949502 7.513132 -17.849353 0
M  V30 8 O 10.834594 3.103334 -20.610847 0
M  V30 9 C 5.964448 5.731766 -20.966615 0
M  V30 10 C 10.770437 5.448647 -17.852405 0 CFG=2
M  V30 11 C 15.296345 5.761620 -18.719407 0
M  V30 12 C 11.146556 4.014744 -19.847187 0
M  V30 13 C 13.134799 8.165051 -20.998852 0
M  V30 14 C 4.491244 6.018859 -23.203657 0
M  V30 15 O 3.776170 5.589601 -22.040838 0
M  V30 16 O 11.509739 4.876601 -16.785182 0
M  V30 17 O 15.653158 4.705408 -19.240443 0
M  V30 18 C 5.233827 7.130017 -18.951780 0
M  V30 19 C 4.717285 8.103896 -19.985026 0
M  V30 20 C 16.196923 8.815253 -18.113705 0
M  V30 21 C 15.942269 4.091207 -16.150329 0
M  V30 22 F 4.111101 8.715636 -22.122309 0
M  V30 23 C 7.785644 4.108595 -20.757911 0
M  V30 24 C 12.465213 4.780041 -20.076764 0
M  V30 25 C 6.129174 6.068030 -19.590529 0
M  V30 26 C 14.353237 7.294567 -20.626754 0
M  V30 27 C 16.036055 6.313413 -17.481082 0 CFG=1
M  V30 28 C 7.954652 4.453619 -19.401787 0
M  V30 29 C 6.799439 4.743164 -21.535319 0
M  V30 30 C 14.097366 6.576270 -19.237128 0 CFG=1
M  V30 31 C 9.045076 3.780744 -18.573154 0
M  V30 32 N 10.359428 4.402659 -18.804979 0
M  V30 33 C 4.575345 7.782212 -21.274391 0
M  V30 34 C 15.591976 8.235006 -20.507971 0
M  V30 35 C 11.706755 6.486140 -18.481402 0
M  V30 36 H 7.248224 5.693279 -17.777491 0
M  V30 37 H 14.993587 6.956700 -22.688794 0
M  V30 38 H 15.531443 5.698899 -21.609696 0
M  V30 39 H 13.874052 5.749246 -22.176861 0
M  V30 40 H 17.589293 4.790775 -17.376572 0
M  V30 41 H 17.365161 5.672330 -15.896160 0
M  V30 42 H 15.082106 10.075958 -19.371801 0
M  V30 43 H 17.639984 7.718795 -17.030774 0
M  V30 44 H 17.593881 7.261203 -18.691093 0
M  V30 45 H 9.891214 5.948896 -17.444174 0
M  V30 46 H 13.352962 8.825621 -21.839218 0
M  V30 47 H 12.273262 7.566433 -21.291092 0
M  V30 48 H 12.831689 8.789547 -20.159278 0
M  V30 49 H 3.941057 6.720767 -23.827151 0
M  V30 50 H 5.013324 5.223642 -23.728593 0
M  V30 51 H 11.065577 5.035540 -15.961941 0
M  V30 52 H 4.387668 6.649681 -18.460078 0
M  V30 53 H 5.775836 7.677633 -18.183175 0
M  V30 54 H 4.455009 9.093008 -19.641797 0
M  V30 55 H 16.145230 9.512672 -17.289748 0
M  V30 56 H 16.543313 3.379750 -15.585442 0
M  V30 57 H 15.181036 4.493021 -15.481071 0
M  V30 58 H 15.427825 3.524041 -16.926045 0
M  V30 59 H 8.419080 3.358900 -21.207297 0
M  V30 60 H 13.269565 4.072546 -20.278208 0
M  V30 61 H 12.257591 5.323336 -20.992277 0
M  V30 62 H 15.275158 6.680751 -16.791391 0
M  V30 63 H 6.688583 4.474361 -22.573863 0
M  V30 64 H 13.974223 7.381522 -18.515547 0
M  V30 65 H 9.068222 2.714178 -18.803844 0
M  V30 66 H 8.786404 3.836875 -17.515043 0
M  V30 67 H 15.665295 8.883600 -21.382475 0
M  V30 68 H 16.510177 7.649416 -20.534174 0
M  V30 69 H 11.194335 7.049188 -19.262312 0
M  V30 70 H 12.022286 7.202022 -17.721071 0
M  V30 71 H 13.097640 5.157358 -18.237531 0
M  V30 END ATOM
M  V30 BEGIN BOND
M  V30 1 1 9 6
M  V30 2 2 12 8
M  V30 3 1 14 6
M  V30 4 1 6 15 CFG=1
M  V30 5 1 15 14
M  V30 6 1 16 10
M  V30 7 2 17 11
M  V30 8 1 19 18
M  V30 9 2 20 5
M  V30 10 1 20 7
M  V30 11 1 21 4
M  V30 12 1 24 2
M  V30 13 1 24 12
M  V30 14 1 25 1
M  V30 15 2 25 9
M  V30 16 1 25 18
M  V30 17 1 26 3
M  V30 18 1 26 13
M  V30 19 1 27 4
M  V30 20 1 27 7
M  V30 21 1 27 11
M  V30 22 2 28 1
M  V30 23 1 28 23
M  V30 24 1 29 9
M  V30 25 2 29 23
M  V30 26 1 30 2
M  V30 27 1 30 11
M  V30 28 1 30 26
M  V30 29 1 31 28
M  V30 30 1 32 10
M  V30 31 1 32 12
M  V30 32 1 32 31
M  V30 33 1 33 6
M  V30 34 2 33 19
M  V30 35 1 33 22
M  V30 36 1 34 5
M  V30 37 1 34 26
M  V30 38 1 35 2
M  V30 39 1 35 10
M  V30 40 1 36 1
M  V30 41 1 37 3
M  V30 42 1 38 3
M  V30 43 1 39 3
M  V30 44 1 40 4
M  V30 45 1 41 4
M  V30 46 1 42 5
M  V30 47 1 43 7
M  V30 48 1 44 7
M  V30 49 1 10 45 CFG=1
M  V30 50 1 46 13
M  V30 51 1 47 13
M  V30 52 1 48 13
M  V30 53 1 49 14
M  V30 54 1 50 14
M  V30 55 1 51 16
M  V30 56 1 52 18
M  V30 57 1 53 18
M  V30 58 1 54 19
M  V30 59 1 55 20
M  V30 60 1 56 21
M  V30 61 1 57 21
M  V30 62 1 58 21
M  V30 63 1 59 23
M  V30 64 1 60 24
M  V30 65 1 61 24
M  V30 66 1 27 62 CFG=1
M  V30 67 1 63 29
M  V30 68 1 30 64 CFG=1
M  V30 69 1 65 31
M  V30 70 1 66 31
M  V30 71 1 67 34
M  V30 72 1 68 34
M  V30 73 1 69 35
M  V30 74 1 70 35
M  V30 75 1 2 71 CFG=1
M  V30 END BOND
M  V30 END CTAB
M  END
>  <i_epik_Tot_Q>  (1) 
1

>  <i_epik_Tot_abs_Q>  (1) 
1

>  <i_i_glide_confnum>  (1) 
3

>  <i_i_glide_lignum>  (1) 
6

>  <i_i_glide_posenum>  (1) 
319

>  <i_i_glide_rotatable_bonds>  (1) 
5

>  <i_lp_mmshare_version>  (1) 
72125

>  <i_m_source_file_index>  (1) 
3

>  <i_f3d_flags>  (1) 
0

>  <num_sample>  (1) 
100

>  <b_lp_Chiralities_Consistent>  (1) 
1

>  <r_epik_Charging_Adjusted_Penalty>  (1) 
2.4002963273514464

>  <r_epik_Ionization_Penalty>  (1) 
1.2026340853706476

>  <r_epik_Ionization_Penalty_Charging>  (1) 
1.2001481636757232

>  <r_epik_Ionization_Penalty_Neutral>  (1) 
0.0024859216949244217

>  <r_epik_State_Penalty>  (1) 
1.2001481636757232

>  <r_glide_ring_energy>  (1) 
0

>  <r_i_docking_score>  (1) 
-2.4401496388893911

>  <r_i_glide_ecoul>  (1) 
-4.8307780143208978

>  <r_i_glide_eff_state_penalty>  (1) 
1.2001481636757232

>  <r_i_glide_einternal>  (1) 
14.102454176871291

>  <r_i_glide_emodel>  (1) 
-29.327172433157664

>  <r_i_glide_emodel_strain>  (1) 
0.18037693787007925

>  <r_i_glide_energy>  (1) 
-29.950493593449043

>  <r_i_glide_erotb>  (1) 
0.26041846348708686

>  <r_i_glide_esite>  (1) 
0

>  <r_i_glide_evdw>  (1) 
-25.119715579128144

>  <r_i_glide_gscore>  (1) 
-3.6402978025651143

>  <r_i_glide_gscore_strain>  (1) 
0

>  <r_i_glide_hbond>  (1) 
-0.25408238384244852

>  <r_i_glide_ligand_efficiency>  (1) 
-0.069718561111125454

>  <r_i_glide_ligand_efficiency_ln>  (1) 
-0.53566700193959749

>  <r_i_glide_ligand_efficiency_sa>  (1) 
-0.22805403644542691

>  <r_i_glide_lipo>  (1) 
-1.2435730733964068

>  <r_i_glide_metal>  (1) 
-0

>  <r_i_glide_rewards>  (1) 
-0.42245832770880409

>  <r_lp_Energy>  (1) 
72.081104999999994

>  <r_lp_tautomer_probability>  (1) 
0.99995000000000001

>  <s_epik_Chemistry_Notes>  (1) 
This compound contains an acetal/aminal-like group ( X-CH(R)-Y where X, Y are N, S, or O) that may be acid/base labile, releasing an aldehyde.

>  <s_epik_cmdline>  (1) 
J2VwaWtfcHl0aG9uJywgJy1waHQnLCAnMS4wJywgJy1waCcsICc3LjQnLCAnLXRuJywgJzgnLCAnLW1hJywgJzUwMCcsICctaW1hZScsICc8aW5maWxlLm1hZT4nLCAnLW9tYWUnLCAnPG91dGZpbGUubWFlPic=

>  <s_epik_input>  (1) 
TzFbQ0gyXVtDQF0xMmMzYyhbQ0gyXVtDSF09QzJGKVtjSF1jKFtjSF1bY0hdMylbQ0gyXU4oW0NAQEhdKFtPSF0pW0NIMl00KUMoPU8pW0NIMl1ONFtDQEhdKEM1KFtDSDNdKVtDSDNdKUMoPU8pW0NAQEhdKFtDSDJdW0NIM10pW0NIMl0vW0NIXT1bQ0hdXFtDSDJdNQ==

>  <s_glide_docking_method>  (1) 
confgen

>  <s_i_glide_gridfile>  (1) 
gpcr_drd2_6luq_protein_autoprepared_prepared

>  <s_lp_Force_Field>  (1) 
S-OPLS

>  <s_lp_Variant>  (1) 
DiffSBDD_2-3

>  <s_m_source_file>  (1) 
generated_generic_title2_ligand_DiffSBDD_2026-06-23_prepared.sdf

>  <GenAI_Model>  (1) 
DiffSBDD

>  <Protein>  (1) 
generic_title2

$$$$
DiffSBDD_26
     RDKit          3D

  0  0  0  0  0  0  0  0  0  0999 V3000
M  V30 BEGIN CTAB
M  V30 COUNTS 56 58 0 0 1
M  V30 BEGIN ATOM
M  V30 1 C 7.132730 4.639737 -15.293947 0
M  V30 2 O 11.500506 7.590227 -10.785026 0
M  V30 3 C 6.943788 1.502546 -15.566023 0 CFG=1
M  V30 4 C 7.010768 5.006705 -9.985041 0
M  V30 5 C 5.614330 0.446590 -13.599638 0
M  V30 6 C 9.213952 4.390226 -13.997521 0
M  V30 7 C 7.539115 5.200767 -12.301535 0 CFG=2
M  V30 8 C 5.886688 5.648577 -10.821595 0
M  V30 9 C 6.481573 6.965971 -14.325656 0
M  V30 10 N 6.568653 6.227396 -11.978883 0
M  V30 11 N 9.421917 5.648455 -10.617944 0 CHG=1
M  V30 12 C 7.738243 1.166673 -16.839510 0
M  V30 13 C 9.342390 6.990320 -10.002166 0
M  V30 14 C 5.671691 6.504484 -13.095751 0
M  V30 15 C 6.243966 0.235383 -14.991597 0
M  V30 16 C 7.591731 5.968829 -14.698687 0 CFG=1
M  V30 17 C 8.291483 3.665331 -15.013268 0 CFG=1
M  V30 18 C 8.190841 4.871993 -10.952386 0 CFG=1
M  V30 19 O 8.934980 0.891342 -16.785030 0
M  V30 20 C 7.781354 2.286451 -14.525153 0
M  V30 21 O 11.005423 8.033977 -8.664381 0 CHG=-1
M  V30 22 C 8.439966 5.593006 -13.482050 0 CFG=2
M  V30 23 C 5.152708 -0.294206 -15.941069 0
M  V30 24 C 10.734434 7.590227 -9.800847 0
M  V30 25 H 6.920268 4.724896 -16.360418 0
M  V30 26 H 6.215454 4.303561 -14.810732 0
M  V30 27 H 6.175414 2.183740 -15.907900 0
M  V30 28 H 6.689001 4.026545 -9.630780 0
M  V30 29 H 7.236650 5.590225 -9.097646 0
M  V30 30 H 4.963085 1.319754 -13.585017 0
M  V30 31 H 6.371685 0.567938 -12.825501 0
M  V30 32 H 5.011567 -0.409758 -13.302241 0
M  V30 33 H 9.558572 3.746413 -13.185025 0
M  V30 34 H 10.103136 4.756995 -14.514802 0
M  V30 35 H 6.961116 4.323520 -12.590525 0
M  V30 36 H 5.189838 4.874650 -11.146939 0
M  V30 37 H 5.315120 6.390222 -10.266617 0
M  V30 38 H 6.947116 7.927701 -14.108195 0
M  V30 39 H 5.817596 7.132830 -15.174251 0
M  V30 40 H 9.978738 5.758425 -11.453500 0
M  V30 41 H 7.169453 1.194178 -17.768580 0
M  V30 42 H 8.754042 7.656695 -10.634505 0
M  V30 43 H 8.895555 6.907078 -9.014350 0
M  V30 44 H 5.080778 5.620900 -13.338735 0
M  V30 45 H 4.975413 7.287364 -12.796820 0
M  V30 46 H 6.997032 -0.547013 -14.883454 0
M  V30 47 H 8.249154 6.390226 -15.451890 0
M  V30 48 H 8.869687 3.538150 -15.929373 0
M  V30 49 H 8.521310 3.834909 -10.990744 0
M  V30 50 H 7.184943 2.470606 -13.636144 0
M  V30 51 H 8.590696 1.649313 -14.180108 0
M  V30 52 H 9.100305 6.409655 -13.189208 0
M  V30 53 H 4.308336 0.390220 -15.985033 0
M  V30 54 H 4.759906 -1.241095 -15.585028 0
M  V30 55 H 5.511942 -0.464657 -16.955403 0
M  V30 56 H 9.957335 5.096775 -9.964632 0
M  V30 END ATOM
M  V30 BEGIN BOND
M  V30 1 1 8 4
M  V30 2 1 10 7
M  V30 3 1 10 8
M  V30 4 1 12 3
M  V30 5 1 13 11
M  V30 6 1 14 9
M  V30 7 1 14 10
M  V30 8 1 15 3
M  V30 9 1 15 5
M  V30 10 1 16 1
M  V30 11 1 16 9
M  V30 12 1 17 1
M  V30 13 1 17 6
M  V30 14 1 18 4
M  V30 15 1 18 7
M  V30 16 1 18 11
M  V30 17 2 19 12
M  V30 18 1 20 3
M  V30 19 1 20 17
M  V30 20 1 22 6
M  V30 21 1 22 7
M  V30 22 1 22 16
M  V30 23 1 23 15
M  V30 24 2 24 2
M  V30 25 1 24 13
M  V30 26 1 24 21
M  V30 27 1 25 1
M  V30 28 1 26 1
M  V30 29 1 3 27 CFG=3
M  V30 30 1 28 4
M  V30 31 1 29 4
M  V30 32 1 30 5
M  V30 33 1 31 5
M  V30 34 1 32 5
M  V30 35 1 33 6
M  V30 36 1 34 6
M  V30 37 1 7 35 CFG=3
M  V30 38 1 36 8
M  V30 39 1 37 8
M  V30 40 1 38 9
M  V30 41 1 39 9
M  V30 42 1 40 11
M  V30 43 1 41 12
M  V30 44 1 42 13
M  V30 45 1 43 13
M  V30 46 1 44 14
M  V30 47 1 45 14
M  V30 48 1 46 15
M  V30 49 1 16 47 CFG=3
M  V30 50 1 17 48 CFG=3
M  V30 51 1 18 49 CFG=3
M  V30 52 1 50 20
M  V30 53 1 51 20
M  V30 54 1 22 52 CFG=1
M  V30 55 1 53 23
M  V30 56 1 54 23
M  V30 57 1 55 23
M  V30 58 1 56 11
M  V30 END BOND
M  V30 END CTAB
M  END
>  <i_epik_Tot_Q>  (1) 
0

>  <i_epik_Tot_abs_Q>  (1) 
2

>  <i_i_glide_confnum>  (1) 
19

>  <i_i_glide_lignum>  (1) 
47

>  <i_i_glide_posenum>  (1) 
155

>  <i_i_glide_rotatable_bonds>  (1) 
7

>  <i_lp_mmshare_version>  (1) 
72125

>  <i_m_source_file_index>  (1) 
27

>  <i_f3d_flags>  (1) 
0

>  <num_sample>  (1) 
100

>  <b_lp_Chiralities_Consistent>  (1) 
1

>  <r_epik_Charging_Adjusted_Penalty>  (1) 
0.88863216281337021

>  <r_epik_Ionization_Penalty>  (1) 
0.10008493971951925

>  <r_epik_Ionization_Penalty_Charging>  (1) 
0.025347597467073411

>  <r_epik_Ionization_Penalty_Neutral>  (1) 
0.07473734225244584

>  <r_epik_State_Penalty>  (1) 
0.86328456534629683

>  <r_glide_ring_energy>  (1) 
0

>  <r_i_docking_score>  (1) 
-2.4298138520848322

>  <r_i_glide_ecoul>  (1) 
-3.2266266323922368

>  <r_i_glide_eff_state_penalty>  (1) 
0.86328456534629683

>  <r_i_glide_einternal>  (1) 
6.2066595921623406

>  <r_i_glide_emodel>  (1) 
-27.192309938968453

>  <r_i_glide_emodel_strain>  (1) 
0.59838953594401545

>  <r_i_glide_energy>  (1) 
-26.148023602367758

>  <r_i_glide_erotb>  (1) 
0.66727664270853937

>  <r_i_glide_esite>  (1) 
-0.029070644146137994

>  <r_i_glide_evdw>  (1) 
-22.921396969975522

>  <r_i_glide_gscore>  (1) 
-3.2930984174311293

>  <r_i_glide_gscore_strain>  (1) 
0

>  <r_i_glide_hbond>  (1) 
0

>  <r_i_glide_ligand_efficiency>  (1) 
-0.10124224383686801

>  <r_i_glide_ligand_efficiency_ln>  (1) 
-0.58156595169633785

>  <r_i_glide_ligand_efficiency_sa>  (1) 
-0.29203316534136153

>  <r_i_glide_lipo>  (1) 
-0.95327620490558806

>  <r_i_glide_metal>  (1) 
-0

>  <r_i_glide_rewards>  (1) 
-1.3479643677303319

>  <r_lp_Energy>  (1) 
21.078503999999999

>  <s_epik_cmdline>  (1) 
J2VwaWtfcHl0aG9uJywgJy1waHQnLCAnMS4wJywgJy1waCcsICc3LjQnLCAnLXRuJywgJzgnLCAnLW1hJywgJzUwMCcsICctaW1hZScsICc8aW5maWxlLm1hZT4nLCAnLW9tYWUnLCAnPG91dGZpbGUubWFlPic=

>  <s_epik_input>  (1) 
W0NIM11bQ0hdKFtDSDNdKVtDQEhdKFtDSF09TylbQ0gyXVtDQEBIXShbQ0gyXTEpW0NIMl1bQ0BIXTJbQ0BASF0xW0NIMl1bQ0gyXU4oW0NAQEhdMjMpW0NIMl1bQ0gyXVtDQEBIXTNbTkhdW0NIMl1DKD1PKVtPSF0=

>  <s_glide_docking_method>  (1) 
confgen

>  <s_i_glide_gridfile>  (1) 
gpcr_drd2_6luq_protein_autoprepared_prepared

>  <s_lp_Force_Field>  (1) 
S-OPLS

>  <s_lp_Variant>  (1) 
DiffSBDD_26-3

>  <s_m_source_file>  (1) 
generated_generic_title2_ligand_DiffSBDD_2026-06-23_prepared.sdf

>  <GenAI_Model>  (1) 
DiffSBDD

>  <Protein>  (1) 
generic_title2

$$$$
DiffSBDD_17
     RDKit          3D

  0  0  0  0  0  0  0  0  0  0999 V3000
M  V30 BEGIN CTAB
M  V30 COUNTS 42 43 0 0 1
M  V30 BEGIN ATOM
M  V30 1 Cl 11.772111 7.776114 -8.995875 0
M  V30 2 C 9.266675 6.837616 -9.423200 0
M  V30 3 C 10.248695 7.150891 -8.292707 0 CFG=2
M  V30 4 C 8.297581 4.790938 -18.626572 0
M  V30 5 C 11.103353 6.572336 -6.104594 0
M  V30 6 O 9.775012 5.922015 -10.382935 0
M  V30 7 C 7.775765 6.640006 -13.426493 0
M  V30 8 Cl 7.776432 2.614768 -13.760470 0
M  V30 9 C 11.409925 9.042877 -5.521626 0
M  V30 10 O 7.754305 5.024202 -16.280725 0
M  V30 11 O 9.185851 6.650311 -19.581313 0
M  V30 12 C 9.029799 5.734967 -11.529644 0
M  V30 13 O 11.775051 9.870525 -6.384305 0
M  V30 14 C 6.813528 5.135457 -15.219543 0
M  V30 15 C 8.797236 4.427945 -12.004189 0
M  V30 16 C 8.059539 4.224215 -13.190269 0
M  V30 17 C 10.420339 7.944056 -5.959436 0 CFG=1
M  V30 18 C 8.509745 6.842113 -12.242807 0
M  V30 19 C 9.700114 8.188189 -7.306612 0
M  V30 20 O 11.778925 9.024869 -4.326681 0 CHG=-1
M  V30 21 C 7.191295 4.989643 -17.582022 0
M  V30 22 C 10.504150 5.963859 -7.369728 0
M  V30 23 C 7.559323 5.336368 -13.911330 0
M  V30 24 N 9.209738 5.990244 -18.563953 0
M  V30 25 H 8.975499 7.786716 -9.866568 0
M  V30 26 H 8.376599 6.390206 -8.986301 0
M  V30 27 H 8.897968 3.904158 -18.420584 0
M  V30 28 H 7.884069 4.706275 -19.633256 0
M  V30 29 H 10.947558 5.947580 -5.225976 0
M  V30 30 H 12.175407 6.663363 -6.252511 0
M  V30 31 H 7.395279 7.489676 -13.973752 0
M  V30 32 H 6.175482 4.254198 -15.182138 0
M  V30 33 H 6.156992 5.990290 -15.390334 0
M  V30 34 H 9.189549 3.580478 -11.460872 0
M  V30 35 H 9.668270 7.859735 -5.185034 0
M  V30 36 H 8.684581 7.845864 -11.892117 0
M  V30 37 H 9.791169 9.190228 -7.704651 0
M  V30 38 H 8.631265 8.024315 -7.156762 0
M  V30 39 H 6.504596 4.152535 -17.664952 0
M  V30 40 H 6.629989 5.903991 -17.781704 0
M  V30 41 H 9.550484 5.498537 -7.118251 0
M  V30 42 H 11.119089 5.190325 -7.812924 0
M  V30 END ATOM
M  V30 BEGIN BOND
M  V30 1 1 3 1 CFG=3
M  V30 2 1 3 2
M  V30 3 1 6 2
M  V30 4 1 12 6
M  V30 5 2 13 9
M  V30 6 1 14 10
M  V30 7 2 15 12
M  V30 8 1 16 8
M  V30 9 1 16 15
M  V30 10 1 17 5
M  V30 11 1 17 9
M  V30 12 2 18 7
M  V30 13 1 18 12
M  V30 14 1 19 3
M  V30 15 1 19 17
M  V30 16 1 20 9
M  V30 17 1 21 4
M  V30 18 1 21 10
M  V30 19 1 22 3
M  V30 20 1 22 5
M  V30 21 1 23 7
M  V30 22 1 23 14
M  V30 23 2 23 16
M  V30 24 1 24 4
M  V30 25 2 24 11
M  V30 26 1 25 2
M  V30 27 1 26 2
M  V30 28 1 27 4
M  V30 29 1 28 4
M  V30 30 1 29 5
M  V30 31 1 30 5
M  V30 32 1 31 7
M  V30 33 1 32 14
M  V30 34 1 33 14
M  V30 35 1 34 15
M  V30 36 1 17 35 CFG=1
M  V30 37 1 36 18
M  V30 38 1 37 19
M  V30 39 1 38 19
M  V30 40 1 39 21
M  V30 41 1 40 21
M  V30 42 1 41 22
M  V30 43 1 42 22
M  V30 END BOND
M  V30 END CTAB
M  END
>  <i_epik_Tot_Q>  (1) 
-1

>  <i_epik_Tot_abs_Q>  (1) 
1

>  <i_i_glide_confnum>  (1) 
447

>  <i_i_glide_lignum>  (1) 
33

>  <i_i_glide_posenum>  (1) 
188

>  <i_i_glide_rotatable_bonds>  (1) 
9

>  <i_lp_mmshare_version>  (1) 
72125

>  <i_m_source_file_index>  (1) 
18

>  <i_f3d_flags>  (1) 
0

>  <num_sample>  (1) 
100

>  <b_lp_Chiralities_Consistent>  (1) 
1

>  <r_epik_Charging_Adjusted_Penalty>  (1) 
0.00012381605781317179

>  <r_epik_Ionization_Penalty>  (1) 
0.00012381605830283167

>  <r_epik_Ionization_Penalty_Charging>  (1) 
0.00012381605781317179

>  <r_epik_Ionization_Penalty_Neutral>  (1) 
4.8965987375008979e-13

>  <r_epik_State_Penalty>  (1) 
-0

>  <r_glide_ring_energy>  (1) 
0

>  <r_i_docking_score>  (1) 
-2.4005735220699389

>  <r_i_glide_ecoul>  (1) 
-2.6951969988555384

>  <r_i_glide_eff_state_penalty>  (1) 
-0

>  <r_i_glide_einternal>  (1) 
2.103787572062938

>  <r_i_glide_emodel>  (1) 
-31.001392831225928

>  <r_i_glide_emodel_strain>  (1) 
1.1942081912569904

>  <r_i_glide_energy>  (1) 
-28.821976534733302

>  <r_i_glide_erotb>  (1) 
0.96174401237487195

>  <r_i_glide_esite>  (1) 
0

>  <r_i_glide_evdw>  (1) 
-26.126779535877763

>  <r_i_glide_gscore>  (1) 
-2.4005735220699389

>  <r_i_glide_gscore_strain>  (1) 
0

>  <r_i_glide_hbond>  (1) 
0

>  <r_i_glide_ligand_efficiency>  (1) 
-0.10002389675291412

>  <r_i_glide_ligand_efficiency_ln>  (1) 
-0.57456739897245912

>  <r_i_glide_ligand_efficiency_sa>  (1) 
-0.28851884422472596

>  <r_i_glide_lipo>  (1) 
-1.7147657614467058

>  <r_i_glide_metal>  (1) 
-0

>  <r_i_glide_rewards>  (1) 
0.063066753624113958

>  <r_lp_Energy>  (1) 
30.153981999999999

>  <r_lp_tautomer_probability>  (1) 
1

>  <s_epik_cmdline>  (1) 
J2VwaWtfcHl0aG9uJywgJy1waHQnLCAnMS4wJywgJy1waCcsICc3LjQnLCAnLXRuJywgJzgnLCAnLW1hJywgJzUwMCcsICctaW1hZScsICc8aW5maWxlLm1hZT4nLCAnLW9tYWUnLCAnPG91dGZpbGUubWFlPic=

>  <s_epik_input>  (1) 
Tz1DKFtPSF0pW0NAQEhdKFtDSDJdW0NIMl0xKVtDSDJdW0NAXTEoQ2wpW0NIMl1PYzJbY0hdYyhDbCljKFtjSF1bY0hdMilbQ0gyXU9bQ0gyXVtDSDJdTj1P

>  <s_glide_docking_method>  (1) 
confgen

>  <s_i_glide_gridfile>  (1) 
gpcr_drd2_6luq_protein_autoprepared_prepared

>  <s_lp_Force_Field>  (1) 
S-OPLS

>  <s_lp_Variant>  (1) 
DiffSBDD_17-2

>  <s_m_source_file>  (1) 
generated_generic_title2_ligand_DiffSBDD_2026-06-23_prepared.sdf

>  <GenAI_Model>  (1) 
DiffSBDD

>  <Protein>  (1) 
generic_title2

$$$$
DiffSBDD_43
     RDKit          3D

  0  0  0  0  0  0  0  0  0  0999 V3000
M  V30 BEGIN CTAB
M  V30 COUNTS 73 80 0 0 1
M  V30 BEGIN ATOM
M  V30 1 C 8.419587 0.292497 -17.810199 0 CFG=1
M  V30 2 C 8.078038 -0.290397 -16.451571 0 CFG=2
M  V30 3 C 5.924901 0.131295 -17.553595 0 CFG=1
M  V30 4 C 5.779371 -4.522706 -18.357902 0
M  V30 5 C 12.063844 1.731481 -17.867493 0
M  V30 6 C 11.817781 2.994015 -18.688567 0
M  V30 7 C 7.057789 0.564644 -18.512878 0
M  V30 8 S 15.846705 7.893133 -18.385133 0
M  V30 9 C 14.332689 5.547299 -18.728315 0 CFG=1
M  V30 10 C 14.316010 6.956812 -18.143155 0 CFG=1
M  V30 11 C 7.623330 -2.820729 -19.165257 0
M  V30 12 C 13.874160 4.752846 -16.350010 0
M  V30 13 C 4.804508 -0.757377 -18.162002 0
M  V30 14 C 14.593351 4.461167 -17.678507 0 CFG=1
M  V30 15 C 14.060657 8.250735 -20.467613 0
M  V30 16 C 6.218114 -2.458558 -19.602075 0 CFG=1
M  V30 17 N 12.962846 3.688630 -19.107075 0
M  V30 18 C 6.612639 -3.901669 -19.455836 0 CFG=2
M  V30 19 O 13.657335 7.092008 -16.887729 0
M  V30 20 C 10.577491 3.401028 -19.013904 0
M  V30 21 C 5.145738 -3.338524 -17.608225 0
M  V30 22 C 8.459332 3.767217 -17.813332 0
M  V30 23 C 14.140902 6.191562 -15.898614 0
M  V30 24 C 13.015543 5.118267 -19.351882 0
M  V30 25 C 9.520915 1.406444 -17.722688 0 CFG=1
M  V30 26 C 10.892523 0.755123 -18.004376 0
M  V30 27 C 14.161434 8.230986 -18.956551 0 CFG=2
M  V30 28 C 6.584476 -0.388913 -16.299789 0 CFG=2
M  V30 29 C 7.383017 0.510046 -15.382937 0
M  V30 30 F 8.149542 4.768736 -18.638012 0
M  V30 31 O 14.048096 3.283693 -18.260121 0
M  V30 32 F 7.325437 3.283117 -17.323641 0
M  V30 33 F 9.161862 4.262014 -16.792480 0
M  V30 34 C 5.061973 -2.210992 -18.654309 0 CFG=1
M  V30 35 C 9.294764 2.700595 -18.573716 0 CFG=2
M  V30 36 H 8.850262 -0.531608 -18.377133 0
M  V30 37 H 8.684280 -1.132641 -16.122588 0
M  V30 38 H 5.421182 1.048814 -17.246167 0
M  V30 39 H 6.386543 -5.151814 -17.706240 0
M  V30 40 H 5.005854 -5.143149 -18.810828 0
M  V30 41 H 12.969040 1.209950 -18.181632 0
M  V30 42 H 12.194230 2.017796 -16.823421 0
M  V30 43 H 6.896497 1.592111 -18.820434 0
M  V30 44 H 7.016632 0.006504 -19.445673 0
M  V30 45 H 15.103607 5.478982 -19.496906 0
M  V30 46 H 7.899969 -2.670943 -18.124019 0
M  V30 47 H 8.423696 -2.668792 -19.886296 0
M  V30 48 H 12.797122 4.615290 -16.454035 0
M  V30 49 H 14.199163 4.045474 -15.586439 0
M  V30 50 H 3.988037 -0.801736 -17.439476 0
M  V30 51 H 4.390921 -0.203056 -19.005684 0
M  V30 52 H 15.661771 4.340031 -17.500267 0
M  V30 53 H 13.017074 8.167170 -20.770398 0
M  V30 54 H 14.458074 9.189588 -20.854289 0
M  V30 55 H 14.620213 7.428563 -20.914084 0
M  V30 56 H 6.098849 -2.064786 -20.609875 0
M  V30 57 H 6.756911 -4.497436 -20.355224 0
M  V30 58 H 10.451456 4.292505 -19.610359 0
M  V30 59 H 5.799280 -3.066912 -16.785247 0
M  V30 60 H 4.176162 -3.595898 -17.185448 0
M  V30 61 H 13.631051 6.391301 -14.955934 0
M  V30 62 H 15.204687 6.350679 -15.727537 0
M  V30 63 H 12.975053 5.341697 -20.417946 0
M  V30 64 H 12.179625 5.618856 -18.861120 0
M  V30 65 H 9.566425 1.742178 -16.687371 0
M  V30 66 H 10.898607 0.348282 -19.017023 0
M  V30 67 H 11.053899 -0.092822 -17.337216 0
M  V30 68 H 13.775410 9.111048 -18.446065 0
M  V30 69 H 6.107361 -1.215024 -15.786265 0
M  V30 70 H 7.288603 1.584415 -15.515907 0
M  V30 71 H 7.513580 0.182238 -14.353604 0
M  V30 72 H 4.174973 -2.456673 -19.240010 0
M  V30 73 H 8.796603 2.429738 -19.503656 0
M  V30 END ATOM
M  V30 BEGIN BOND
M  V30 1 1 2 1
M  V30 2 1 6 5
M  V30 3 1 7 1
M  V30 4 1 7 3
M  V30 5 1 10 8
M  V30 6 1 10 9
M  V30 7 1 13 3
M  V30 8 1 14 9
M  V30 9 1 14 12
M  V30 10 1 16 11
M  V30 11 1 17 6
M  V30 12 1 18 4
M  V30 13 1 18 11
M  V30 14 1 18 16
M  V30 15 1 10 19 CFG=1
M  V30 16 2 20 6
M  V30 17 1 21 4
M  V30 18 1 23 12
M  V30 19 1 23 19
M  V30 20 1 24 9
M  V30 21 1 24 17
M  V30 22 1 25 1
M  V30 23 1 26 5
M  V30 24 1 26 25
M  V30 25 1 27 8
M  V30 26 1 27 10
M  V30 27 1 27 15
M  V30 28 1 28 2
M  V30 29 1 28 3
M  V30 30 1 29 2
M  V30 31 1 29 28
M  V30 32 1 30 22
M  V30 33 1 31 14
M  V30 34 1 31 17
M  V30 35 1 32 22
M  V30 36 1 33 22
M  V30 37 1 34 13
M  V30 38 1 34 16
M  V30 39 1 34 21
M  V30 40 1 35 20
M  V30 41 1 35 22
M  V30 42 1 35 25
M  V30 43 1 1 36 CFG=3
M  V30 44 1 2 37 CFG=1
M  V30 45 1 3 38 CFG=1
M  V30 46 1 39 4
M  V30 47 1 40 4
M  V30 48 1 41 5
M  V30 49 1 42 5
M  V30 50 1 43 7
M  V30 51 1 44 7
M  V30 52 1 9 45 CFG=3
M  V30 53 1 46 11
M  V30 54 1 47 11
M  V30 55 1 48 12
M  V30 56 1 49 12
M  V30 57 1 50 13
M  V30 58 1 51 13
M  V30 59 1 14 52 CFG=1
M  V30 60 1 53 15
M  V30 61 1 54 15
M  V30 62 1 55 15
M  V30 63 1 16 56 CFG=3
M  V30 64 1 18 57 CFG=3
M  V30 65 1 58 20
M  V30 66 1 59 21
M  V30 67 1 60 21
M  V30 68 1 61 23
M  V30 69 1 62 23
M  V30 70 1 63 24
M  V30 71 1 64 24
M  V30 72 1 25 65 CFG=1
M  V30 73 1 66 26
M  V30 74 1 67 26
M  V30 75 1 27 68 CFG=1
M  V30 76 1 28 69 CFG=1
M  V30 77 1 70 29
M  V30 78 1 71 29
M  V30 79 1 34 72 CFG=3
M  V30 80 1 35 73 CFG=3
M  V30 END BOND
M  V30 END CTAB
M  END
>  <i_epik_Tot_Q>  (1) 
0

>  <i_epik_Tot_abs_Q>  (1) 
0

>  <i_i_glide_confnum>  (1) 
59

>  <i_i_glide_lignum>  (1) 
70

>  <i_i_glide_posenum>  (1) 
111

>  <i_i_glide_rotatable_bonds>  (1) 
5

>  <i_lp_mmshare_version>  (1) 
72125

>  <i_m_source_file_index>  (1) 
44

>  <i_f3d_flags>  (1) 
0

>  <num_sample>  (1) 
100

>  <b_lp_Chiralities_Consistent>  (1) 
1

>  <r_epik_Charging_Adjusted_Penalty>  (1) 
0

>  <r_epik_Ionization_Penalty>  (1) 
0.0012510015798316548

>  <r_epik_Ionization_Penalty_Charging>  (1) 
0

>  <r_epik_Ionization_Penalty_Neutral>  (1) 
0.0012510015798316548

>  <r_epik_State_Penalty>  (1) 
-0

>  <r_glide_ring_energy>  (1) 
1.7881069195932777

>  <r_i_docking_score>  (1) 
-2.3510106708136447

>  <r_i_glide_ecoul>  (1) 
-0.35007082982171506

>  <r_i_glide_eff_state_penalty>  (1) 
-0

>  <r_i_glide_einternal>  (1) 
20.547775727026718

>  <r_i_glide_emodel>  (1) 
-20.058402783573296

>  <r_i_glide_emodel_strain>  (1) 
0.013066247208371351

>  <r_i_glide_energy>  (1) 
-26.953001122354603

>  <r_i_glide_erotb>  (1) 
0.31537474361301371

>  <r_i_glide_esite>  (1) 
0

>  <r_i_glide_evdw>  (1) 
-26.602930292532889

>  <r_i_glide_gscore>  (1) 
-2.3510106708136447

>  <r_i_glide_gscore_strain>  (1) 
0

>  <r_i_glide_hbond>  (1) 
0

>  <r_i_glide_ligand_efficiency>  (1) 
-0.067171733451818413

>  <r_i_glide_ligand_efficiency_ln>  (1) 
-0.51609902011416442

>  <r_i_glide_ligand_efficiency_sa>  (1) 
-0.21972319429121118

>  <r_i_glide_lipo>  (1) 
-1.076019497988725

>  <r_i_glide_metal>  (1) 
-0

>  <r_i_glide_rewards>  (1) 
-0.2077087773380317

>  <r_lp_Energy>  (1) 
25.974439

>  <r_lp_tautomer_probability>  (1) 
1

>  <s_epik_Chemistry_Notes>  (1) 
This compound has a N-S or N-O group and may undergo hydrolysis at high or low pH.

>  <s_epik_cmdline>  (1) 
J2VwaWtfcHl0aG9uJywgJy1waHQnLCAnMS4wJywgJy1waCcsICc3LjQnLCAnLXRuJywgJzgnLCAnLW1hJywgJzUwMCcsICctaW1hZScsICc8aW5maWxlLm1hZT4nLCAnLW9tYWUnLCAnPG91dGZpbGUubWFlPic=

>  <s_epik_input>  (1) 
W0NIMl0xW0NASF0oW0NASF0xMilbQ0gyXVtDSDJdW0NASF0yW0NIMl1bQ0BASF0oW0NAQEhdKFtDQEBIXTM0KVtDSDJdNClbQ0gyXVtDQEhdM1tDQEBIXShbQ0gyXVtDSDJdNSlbQ0BASF0oQyhGKShGKUYpW0NIXT1DNU4oW0NIMl02KU9bQ0BASF0oW0NIMl1bQ0gyXU83KVtDQEBIXTZbQ0BAXTc4U1tDQEhdOFtDSDNd

>  <s_glide_docking_method>  (1) 
confgen

>  <s_i_glide_gridfile>  (1) 
gpcr_drd2_6luq_protein_autoprepared_prepared

>  <s_lp_Force_Field>  (1) 
S-OPLS

>  <s_lp_Variant>  (1) 
DiffSBDD_43-2

>  <s_m_source_file>  (1) 
generated_generic_title2_ligand_DiffSBDD_2026-06-23_prepared.sdf

>  <GenAI_Model>  (1) 
DiffSBDD

>  <Protein>  (1) 
generic_title2

$$$$
DiffSBDD_42
     RDKit          3D

  0  0  0  0  0  0  0  0  0  0999 V3000
M  V30 BEGIN CTAB
M  V30 COUNTS 66 71 0 0 1
M  V30 BEGIN ATOM
M  V30 1 C 21.155111 15.675997 -17.339381 0
M  V30 2 C 21.114769 18.575540 -14.933152 0 CFG=2
M  V30 3 C 22.752253 16.659788 -19.362093 0 CFG=2
M  V30 4 C 23.219322 18.012761 -18.928463 0
M  V30 5 C 21.221843 17.280202 -17.311330 0 CFG=1
M  V30 6 N 19.820288 21.144552 -8.918873 0
M  V30 7 C 19.314302 20.197212 -13.788076 0 CFG=2
M  V30 8 C 21.199009 16.913705 -19.720356 0
M  V30 9 C 22.359642 16.286440 -15.575700 0
M  V30 10 C 20.450390 19.747530 -12.847197 0 CFG=2
M  V30 11 F 19.822517 18.205441 -8.776111 0
M  V30 12 C 20.989677 18.398788 -13.390964 0 CFG=1
M  V30 13 S 19.775457 19.685717 -15.454166 0
M  V30 14 O 22.141098 19.616049 -17.607741 0
M  V30 15 C 20.312142 17.488459 -18.520612 0
M  V30 16 C 21.001137 18.900847 -8.994576 0
M  V30 17 C 20.032003 19.695610 -11.365849 0
M  V30 18 C 19.010781 20.390343 -5.338937 0
M  V30 19 C 21.118654 19.708548 -10.349393 0
M  V30 20 C 23.275736 15.622862 -18.226473 0
M  V30 21 C 21.113547 17.265071 -15.774464 0 CFG=1
M  V30 22 C 20.928980 20.351056 -9.247859 0
M  V30 23 C 20.137863 17.190809 -12.933251 0
M  V30 24 C 17.900830 21.232333 -5.144461 0
M  V30 25 C 22.479575 15.369024 -16.864511 0 CFG=2
M  V30 26 C 17.437505 22.040689 -6.198358 0
M  V30 27 O 18.834338 19.629189 -11.077769 0
M  V30 28 C 19.191526 21.160098 -7.656282 0
M  V30 29 C 22.493195 18.245033 -17.611258 0 CFG=2
M  V30 30 C 19.657246 20.349647 -6.589499 0
M  V30 31 F 22.186899 18.403459 -8.485240 0
M  V30 32 C 19.026707 21.704092 -13.728707 0
M  V30 33 C 18.082309 22.007268 -7.450207 0
M  V30 34 H 20.385207 15.220112 -16.711061 0
M  V30 35 H 20.946048 15.110142 -18.245308 0
M  V30 36 H 22.041679 19.124105 -15.094693 0
M  V30 37 H 23.267282 16.409059 -20.290162 0
M  V30 38 H 22.975384 18.761487 -19.684984 0
M  V30 39 H 24.301785 18.050544 -18.796788 0
M  V30 40 H 19.573936 21.918604 -9.518341 0
M  V30 41 H 18.396784 19.653015 -13.559712 0
M  V30 42 H 21.134758 17.618845 -20.550053 0
M  V30 43 H 20.754950 16.006398 -20.132182 0
M  V30 44 H 22.172120 15.651424 -14.711546 0
M  V30 45 H 23.298412 16.788153 -15.342632 0
M  V30 46 H 21.255575 20.478431 -12.930561 0
M  V30 47 H 21.993476 18.235234 -12.996634 0
M  V30 48 H 21.403322 19.738078 -18.185428 0
M  V30 49 H 20.062850 18.538200 -18.672085 0
M  V30 50 H 19.360801 16.960604 -18.431212 0
M  V30 51 H 19.367652 19.773083 -4.527646 0
M  V30 52 H 23.311125 14.653487 -18.725866 0
M  V30 53 H 24.319890 15.826819 -17.986827 0
M  V30 54 H 20.175411 16.791448 -15.492668 0
M  V30 55 H 19.086470 17.309772 -13.184969 0
M  V30 56 H 20.484323 16.266261 -13.379796 0
M  V30 57 H 20.194165 17.036253 -11.856025 0
M  V30 58 H 17.405542 21.259744 -4.184805 0
M  V30 59 H 22.578436 14.322766 -16.571687 0
M  V30 60 H 16.586251 22.688249 -6.047343 0
M  V30 61 H 23.271217 18.191381 -16.856386 0
M  V30 62 H 20.508104 19.704827 -6.721806 0
M  V30 63 H 18.706898 22.009973 -12.732572 0
M  V30 64 H 19.911527 22.285218 -13.989438 0
M  V30 65 H 18.233683 21.975894 -14.425858 0
M  V30 66 H 17.722237 22.630128 -8.255835 0
M  V30 END ATOM
M  V30 BEGIN BOND
M  V30 1 1 4 3
M  V30 2 1 5 1
M  V30 3 1 8 3
M  V30 4 1 10 7
M  V30 5 1 12 2
M  V30 6 1 12 10
M  V30 7 1 13 2
M  V30 8 1 13 7
M  V30 9 1 5 15 CFG=3
M  V30 10 1 15 8
M  V30 11 1 16 11
M  V30 12 1 17 10
M  V30 13 1 19 16
M  V30 14 1 19 17
M  V30 15 1 20 3
M  V30 16 1 21 2
M  V30 17 1 21 5
M  V30 18 1 21 9
M  V30 19 1 22 6
M  V30 20 1 22 16
M  V30 21 2 22 19
M  V30 22 1 23 12
M  V30 23 2 24 18
M  V30 24 1 25 1
M  V30 25 1 25 9
M  V30 26 1 25 20
M  V30 27 1 26 24
M  V30 28 2 27 17
M  V30 29 1 28 6
M  V30 30 1 29 4
M  V30 31 1 29 5
M  V30 32 1 29 14
M  V30 33 1 30 18
M  V30 34 2 30 28
M  V30 35 1 31 16
M  V30 36 1 32 7
M  V30 37 2 33 26
M  V30 38 1 33 28
M  V30 39 1 34 1
M  V30 40 1 35 1
M  V30 41 1 2 36 CFG=1
M  V30 42 1 3 37 CFG=3
M  V30 43 1 38 4
M  V30 44 1 39 4
M  V30 45 1 40 6
M  V30 46 1 7 41 CFG=1
M  V30 47 1 42 8
M  V30 48 1 43 8
M  V30 49 1 44 9
M  V30 50 1 45 9
M  V30 51 1 10 46 CFG=1
M  V30 52 1 12 47 CFG=1
M  V30 53 1 48 14
M  V30 54 1 49 15
M  V30 55 1 50 15
M  V30 56 1 51 18
M  V30 57 1 52 20
M  V30 58 1 53 20
M  V30 59 1 21 54 CFG=3
M  V30 60 1 55 23
M  V30 61 1 56 23
M  V30 62 1 57 23
M  V30 63 1 58 24
M  V30 64 1 25 59 CFG=1
M  V30 65 1 60 26
M  V30 66 1 29 61 CFG=1
M  V30 67 1 62 30
M  V30 68 1 63 32
M  V30 69 1 64 32
M  V30 70 1 65 32
M  V30 71 1 66 33
M  V30 END BOND
M  V30 END CTAB
M  END
>  <i_epik_Tot_Q>  (1) 
0

>  <i_epik_Tot_abs_Q>  (1) 
0

>  <i_i_glide_confnum>  (1) 
49

>  <i_i_glide_lignum>  (1) 
68

>  <i_i_glide_posenum>  (1) 
306

>  <i_i_glide_rotatable_bonds>  (1) 
6

>  <i_lp_mmshare_version>  (1) 
72125

>  <i_m_source_file_index>  (1) 
43

>  <i_f3d_flags>  (1) 
0

>  <num_sample>  (1) 
100

>  <b_lp_Chiralities_Consistent>  (1) 
1

>  <r_epik_Charging_Adjusted_Penalty>  (1) 
0

>  <r_epik_Ionization_Penalty>  (1) 
0.00038533319757004503

>  <r_epik_Ionization_Penalty_Charging>  (1) 
0

>  <r_epik_Ionization_Penalty_Neutral>  (1) 
0.00038533319757004503

>  <r_epik_State_Penalty>  (1) 
-0

>  <r_glide_ring_energy>  (1) 
0

>  <r_i_docking_score>  (1) 
-2.3488141989669082

>  <r_i_glide_ecoul>  (1) 
-0.52656732740283785

>  <r_i_glide_eff_state_penalty>  (1) 
-0

>  <r_i_glide_einternal>  (1) 
5.5753048581546309

>  <r_i_glide_emodel>  (1) 
-21.21712152611045

>  <r_i_glide_emodel_strain>  (1) 
0.10679499477959098

>  <r_i_glide_energy>  (1) 
-21.448376880436225

>  <r_i_glide_erotb>  (1) 
0.45088358732322803

>  <r_i_glide_esite>  (1) 
0

>  <r_i_glide_evdw>  (1) 
-20.921809553033388

>  <r_i_glide_gscore>  (1) 
-2.3488141989669082

>  <r_i_glide_gscore_strain>  (1) 
0

>  <r_i_glide_hbond>  (1) 
0

>  <r_i_glide_ligand_efficiency>  (1) 
-0.071176187847482073

>  <r_i_glide_ligand_efficiency_ln>  (1) 
-0.52236411634118807

>  <r_i_glide_ligand_efficiency_sa>  (1) 
-0.22830006599903049

>  <r_i_glide_lipo>  (1) 
-1.1355751883922836

>  <r_i_glide_metal>  (1) 
-0

>  <r_i_glide_rewards>  (1) 
-0.53904702113575731

>  <r_lp_Energy>  (1) 
137.051188

>  <r_lp_tautomer_probability>  (1) 
1

>  <s_epik_cmdline>  (1) 
J2VwaWtfcHl0aG9uJywgJy1waHQnLCAnMS4wJywgJy1waCcsICc3LjQnLCAnLXRuJywgJzgnLCAnLW1hJywgJzUwMCcsICctaW1hZScsICc8aW5maWxlLm1hZT4nLCAnLW9tYWUnLCAnPG91dGZpbGUubWFlPic=

>  <s_epik_input>  (1) 
W09IXVtDQEBIXTFbQ0gyXVtDQEhdKFtDSDJdW0NIMl0yKVtDSDJdW0NASF0oW0NIMl1DMTIzKVtDSDJdW0NASF0zW0NAQEhdNFtDQEhdKFtDSDNdKVtDQEBIXShbQ0BIXShTNClbQ0gzXSlDKD1PKUMoQzUoRilGKT1DNVtOSF1jNltjSF1bY0hdW2NIXVtjSF1bY0hdNg==

>  <s_glide_docking_method>  (1) 
confgen

>  <s_i_glide_gridfile>  (1) 
gpcr_drd2_6luq_protein_autoprepared_prepared

>  <s_lp_Force_Field>  (1) 
S-OPLS

>  <s_lp_Variant>  (1) 
DiffSBDD_42-1

>  <s_m_source_file>  (1) 
generated_generic_title2_ligand_DiffSBDD_2026-06-23_prepared.sdf

>  <GenAI_Model>  (1) 
DiffSBDD

>  <Protein>  (1) 
generic_title2

$$$$
DiffSBDD_80
     RDKit          3D

  0  0  0  0  0  0  0  0  0  0999 V3000
M  V30 BEGIN CTAB
M  V30 COUNTS 81 87 0 0 1
M  V30 BEGIN ATOM
M  V30 1 C 7.632944 4.831411 -17.225163 0
M  V30 2 C 15.536663 5.415565 -20.969700 0
M  V30 3 C 10.446872 2.686331 -19.685573 0
M  V30 4 O 15.671541 4.137565 -18.930638 0
M  V30 5 N 8.725305 4.390239 -11.231590 0 CHG=1
M  V30 6 C 10.459388 -0.010498 -20.350162 0
M  V30 7 C 9.432322 1.849180 -19.176978 0
M  V30 8 C 15.345724 4.163754 -20.116523 0
M  V30 9 C 7.038539 1.957052 -18.369248 0
M  V30 10 C 6.116242 4.701094 -12.308497 0 CFG=2
M  V30 11 C 7.935757 5.458082 -10.597078 0 CFG=2
M  V30 12 C 13.475831 3.267873 -21.626258 0 CFG=1
M  V30 13 C 7.055018 4.991473 -14.686807 0 CFG=2
M  V30 14 O 9.343883 5.054362 -15.452714 0
M  V30 15 C 13.672752 4.529974 -22.511545 0
M  V30 16 C 14.746458 2.940110 -20.806833 0
M  V30 17 N 10.663768 3.990754 -19.527317 0
M  V30 18 O 5.775458 7.004588 -14.083065 0
M  V30 19 C 8.668367 4.453445 -12.706508 0
M  V30 20 C 9.441254 0.484080 -19.514921 0
M  V30 21 O 6.979643 2.904923 -13.502194 0
M  V30 22 C 8.407262 4.128565 -18.382436 0 CFG=2
M  V30 23 C 10.530042 5.393187 -17.521380 0
M  V30 24 C 8.449449 2.577523 -18.264714 0 CFG=2
M  V30 25 C 11.464905 0.861502 -20.833724 0
M  V30 26 O 8.175333 5.190235 -9.235891 0
M  V30 27 C 12.218615 3.292123 -20.764851 0
M  V30 28 C 7.225327 4.285599 -13.290266 0 CFG=1
M  V30 29 C 11.384235 2.223646 -20.448605 0
M  V30 30 N 11.849574 4.479687 -20.209262 0
M  V30 31 C 9.425149 6.058741 -19.644079 0
M  V30 32 C 14.267346 5.750311 -21.771922 0
M  V30 33 C 6.478524 5.318488 -10.967436 0 CFG=2
M  V30 34 C 8.073653 4.503284 -15.768778 0 CFG=2
M  V30 35 C 9.755515 4.835290 -18.744908 0 CFG=1
M  V30 36 C 12.569601 0.322737 -21.724577 0
M  V30 37 O 6.041417 3.968972 -11.077278 0
M  V30 38 C 7.003740 6.543215 -14.602211 0
M  V30 39 C 10.450313 4.601135 -16.220537 0
M  V30 40 H 6.578132 4.580089 -17.329148 0
M  V30 41 H 7.663002 5.907095 -17.382416 0
M  V30 42 H 15.818329 6.255336 -20.333905 0
M  V30 43 H 14.548884 2.158619 -20.072889 0
M  V30 44 H 16.369446 5.235195 -21.649518 0
M  V30 45 H 8.333308 3.507653 -10.932682 0
M  V30 46 H 10.476707 -1.057403 -20.616162 0
M  V30 47 H 7.046563 0.890646 -18.148988 0
M  V30 48 H 6.340341 2.390660 -17.657266 0
M  V30 49 H 6.621677 2.086587 -19.368757 0
M  V30 50 H 5.129617 4.872664 -12.733512 0
M  V30 51 H 8.307076 6.448202 -10.864345 0
M  V30 52 H 13.374050 2.514759 -22.393087 0
M  V30 53 H 6.075103 4.685727 -15.055469 0
M  V30 54 H 14.363769 4.274589 -23.316322 0
M  V30 55 H 12.736969 4.800516 -23.002542 0
M  V30 56 H 15.513833 2.554174 -21.477709 0
M  V30 57 H 5.741998 7.946934 -14.162165 0
M  V30 58 H 9.347562 3.707735 -13.120786 0
M  V30 59 H 9.088654 5.419819 -12.982088 0
M  V30 60 H 8.680779 -0.180907 -19.134786 0
M  V30 61 H 7.613779 2.558273 -14.111201 0
M  V30 62 H 7.786347 4.280219 -19.266964 0
M  V30 63 H 10.175428 6.390234 -17.289733 0
M  V30 64 H 11.580422 5.535201 -17.779029 0
M  V30 65 H 8.831538 2.308545 -17.284736 0
M  V30 66 H 7.775272 5.900168 -8.743178 0
M  V30 67 H 8.719775 6.742742 -19.173593 0
M  V30 68 H 10.315808 6.645200 -19.875159 0
M  V30 69 H 8.991519 5.750455 -20.596529 0
M  V30 70 H 13.529650 6.196488 -21.106320 0
M  V30 71 H 14.500091 6.528520 -22.499082 0
M  V30 72 H 5.768134 5.990082 -10.488840 0
M  V30 73 H 8.143790 3.424872 -15.664438 0
M  V30 74 H 12.518558 -0.766065 -21.753249 0
M  V30 75 H 12.445391 0.658290 -22.754070 0
M  V30 76 H 13.561191 0.562765 -21.347523 0
M  V30 77 H 7.084230 6.992492 -15.586811 0
M  V30 78 H 7.822606 6.950114 -14.011550 0
M  V30 79 H 11.338822 4.828445 -15.632742 0
M  V30 80 H 10.460074 3.527313 -16.385098 0
M  V30 81 H 9.680414 4.453440 -10.913741 0
M  V30 END ATOM
M  V30 BEGIN BOND
M  V30 1 2 7 3
M  V30 2 1 8 2
M  V30 3 2 8 4
M  V30 4 1 11 5
M  V30 5 1 15 12
M  V30 6 1 16 8
M  V30 7 1 16 12
M  V30 8 1 17 3
M  V30 9 1 19 5
M  V30 10 2 20 6
M  V30 11 1 20 7
M  V30 12 1 22 1
M  V30 13 1 24 7
M  V30 14 1 24 9
M  V30 15 1 24 22
M  V30 16 1 25 6
M  V30 17 1 26 11
M  V30 18 1 27 12
M  V30 19 1 28 10
M  V30 20 1 28 13
M  V30 21 1 28 19
M  V30 22 1 28 21 CFG=3
M  V30 23 1 29 3
M  V30 24 2 29 25
M  V30 25 1 29 27
M  V30 26 1 30 17
M  V30 27 2 30 27
M  V30 28 1 32 2
M  V30 29 1 32 15
M  V30 30 1 33 10
M  V30 31 1 33 11
M  V30 32 1 34 1
M  V30 33 1 34 13
M  V30 34 1 34 14
M  V30 35 1 35 17
M  V30 36 1 35 22
M  V30 37 1 35 23
M  V30 38 1 35 31 CFG=3
M  V30 39 1 36 25
M  V30 40 1 37 10
M  V30 41 1 37 33
M  V30 42 1 38 13
M  V30 43 1 38 18
M  V30 44 1 39 14
M  V30 45 1 39 23
M  V30 46 1 40 1
M  V30 47 1 41 1
M  V30 48 1 42 2
M  V30 49 1 43 16
M  V30 50 1 44 2
M  V30 51 1 45 5
M  V30 52 1 46 6
M  V30 53 1 47 9
M  V30 54 1 48 9
M  V30 55 1 49 9
M  V30 56 1 10 50 CFG=3
M  V30 57 1 11 51 CFG=3
M  V30 58 1 12 52 CFG=3
M  V30 59 1 13 53 CFG=3
M  V30 60 1 54 15
M  V30 61 1 55 15
M  V30 62 1 56 16
M  V30 63 1 57 18
M  V30 64 1 58 19
M  V30 65 1 59 19
M  V30 66 1 60 20
M  V30 67 1 61 21
M  V30 68 1 22 62 CFG=3
M  V30 69 1 63 23
M  V30 70 1 64 23
M  V30 71 1 24 65 CFG=1
M  V30 72 1 66 26
M  V30 73 1 67 31
M  V30 74 1 68 31
M  V30 75 1 69 31
M  V30 76 1 70 32
M  V30 77 1 71 32
M  V30 78 1 33 72 CFG=1
M  V30 79 1 34 73 CFG=3
M  V30 80 1 74 36
M  V30 81 1 75 36
M  V30 82 1 76 36
M  V30 83 1 77 38
M  V30 84 1 78 38
M  V30 85 1 79 39
M  V30 86 1 80 39
M  V30 87 1 81 5
M  V30 END BOND
M  V30 END CTAB
M  END
>  <i_epik_Tot_Q>  (1) 
1

>  <i_epik_Tot_abs_Q>  (1) 
1

>  <i_i_glide_confnum>  (1) 
120

>  <i_i_glide_lignum>  (1) 
142

>  <i_i_glide_posenum>  (1) 
154

>  <i_i_glide_rotatable_bonds>  (1) 
7

>  <i_lp_mmshare_version>  (1) 
72125

>  <i_m_source_file_index>  (1) 
81

>  <i_f3d_flags>  (1) 
0

>  <num_sample>  (1) 
100

>  <b_lp_Chiralities_Consistent>  (1) 
1

>  <r_epik_Charging_Adjusted_Penalty>  (1) 
1.2255087210735522

>  <r_epik_Ionization_Penalty>  (1) 
1.2155625160302366

>  <r_epik_Ionization_Penalty_Charging>  (1) 
0.066233371384416553

>  <r_epik_Ionization_Penalty_Neutral>  (1) 
1.14932914464582

>  <r_epik_State_Penalty>  (1) 
1.1592753496891357

>  <r_glide_ring_energy>  (1) 
1.9914992284172288

>  <r_i_docking_score>  (1) 
-2.3355317480117632

>  <r_i_glide_ecoul>  (1) 
-6.3694489412090576

>  <r_i_glide_eff_state_penalty>  (1) 
1.1592753496891357

>  <r_i_glide_einternal>  (1) 
1.0819453326221335

>  <r_i_glide_emodel>  (1) 
-36.215174391575928

>  <r_i_glide_emodel_strain>  (1) 
0.11265849794332894

>  <r_i_glide_energy>  (1) 
-32.297312341649345

>  <r_i_glide_erotb>  (1) 
0.2829020549976658

>  <r_i_glide_esite>  (1) 
-0.090368464797451878

>  <r_i_glide_evdw>  (1) 
-25.927863400440284

>  <r_i_glide_gscore>  (1) 
-3.4948070977008987

>  <r_i_glide_gscore_strain>  (1) 
0

>  <r_i_glide_hbond>  (1) 
-0.059135807601453268

>  <r_i_glide_ligand_efficiency>  (1) 
-0.05988542943619906

>  <r_i_glide_ligand_efficiency_ln>  (1) 
-0.50080430478496041

>  <r_i_glide_ligand_efficiency_sa>  (1) 
-0.20308415357385567

>  <r_i_glide_lipo>  (1) 
-1.1989076171036164

>  <r_i_glide_metal>  (1) 
-0

>  <r_i_glide_rewards>  (1) 
-0.17748675199267039

>  <r_lp_Energy>  (1) 
35.636825000000002

>  <r_lp_tautomer_probability>  (1) 
0.99999997999999979

>  <s_epik_Chemistry_Notes>  (1) 
This compound contains an acetal/aminal-like group ( X-CH(R)-Y where X, Y are N, S, or O) that may be acid/base labile, releasing an aldehyde.

>  <s_epik_cmdline>  (1) 
J2VwaWtfcHl0aG9uJywgJy1waHQnLCAnMS4wJywgJy1waCcsICc3LjQnLCAnLXRuJywgJzgnLCAnLW1hJywgJzUwMCcsICctaW1hZScsICc8aW5maWxlLm1hZT4nLCAnLW9tYWUnLCAnPG91dGZpbGUubWFlPic=

>  <s_epik_input>  (1) 
W0NASF0xMltDQEBIXShPMilbQ0BASF0oW09IXSlbTkhdW0NIMl1bQ0BdMShbT0hdKVtDQEBIXShbQ0gyXVtPSF0pW0NASF0oT1tDSDJdW0NIMl0zKVtDSDJdW0NAQEhdNFtDQEBIXShbQ0gzXSljKGM1bjZbQ0BdMzRbQ0gzXSlbY0hdW2NIXWMoW0NIM10pYzVjKG42KVtDQEhdKFtDSDJdW0NIMl1bQ0gyXTcpW0NIXT1DN1tPSF0=

>  <s_glide_docking_method>  (1) 
confgen

>  <s_i_glide_gridfile>  (1) 
gpcr_drd2_6luq_protein_autoprepared_prepared

>  <s_lp_Force_Field>  (1) 
S-OPLS

>  <s_lp_Variant>  (1) 
DiffSBDD_80-4

>  <s_m_source_file>  (1) 
generated_generic_title2_ligand_DiffSBDD_2026-06-23_prepared.sdf

>  <GenAI_Model>  (1) 
DiffSBDD

>  <Protein>  (1) 
generic_title2

$$$$
DiffSBDD_86
     RDKit          3D

  0  0  0  0  0  0  0  0  0  0999 V3000
M  V30 BEGIN CTAB
M  V30 COUNTS 114 117 0 0 1
M  V30 BEGIN ATOM
M  V30 1 C 15.144782 8.257705 -17.814648 0
M  V30 2 C 14.734824 9.431834 -18.649440 0 CFG=1
M  V30 3 C 5.870044 2.051716 -12.698297 0
M  V30 4 C 7.828625 5.585480 -8.335336 0
M  V30 5 C 10.207760 4.511030 -20.152753 0 CFG=2
M  V30 6 C 6.518780 6.380488 -14.783052 0
M  V30 7 O 12.359602 4.207904 -19.121784 0
M  V30 8 C 10.489276 3.234284 -17.957880 0 CFG=2
M  V30 9 O 14.245503 2.560253 -17.545971 0
M  V30 10 C 11.987081 3.080329 -18.316893 0 CFG=2
M  V30 11 C 9.316816 4.682037 -21.401778 0
M  V30 12 O 15.372647 10.573908 -18.237093 0
M  V30 13 N 5.697109 4.454809 -12.170084 0
M  V30 14 C 10.929366 8.469381 -21.103852 0
M  V30 15 C 13.838216 6.536232 -19.169820 0 CFG=1
M  V30 16 C 8.622407 5.404606 -15.241991 0 CFG=2
M  V30 17 O 15.208598 6.770388 -21.578811 0
M  V30 18 C 9.912258 4.378520 -8.903057 0
M  V30 19 C 11.742122 4.392450 -20.418005 0 CFG=1
M  V30 20 C 12.117921 3.153038 -21.290361 0
M  V30 21 C 12.664282 6.802142 -20.129435 0 CFG=2
M  V30 22 O 7.539837 8.382170 -12.385613 0
M  V30 23 O 6.717899 7.444602 -15.358261 0
M  V30 24 N 6.119522 6.675557 -11.586290 0 CHG=1
M  V30 25 C 12.254519 5.707447 -21.073174 0
M  V30 26 C 9.690901 3.356482 -19.272712 0
M  V30 27 C 7.469841 1.681391 -14.628961 0
M  V30 28 O 7.289818 5.309856 -14.842431 0
M  V30 29 P 14.287137 7.490435 -20.652546 0 CFG=1
M  V30 30 C 9.718066 5.169730 -10.183811 0 CFG=2
M  V30 31 C 14.640941 9.249008 -20.158458 0
M  V30 32 C 13.637618 2.906819 -21.380969 0
M  V30 33 C 8.542769 4.764938 -9.328648 0 CFG=2
M  V30 34 F 8.589889 8.343520 -11.383774 0
M  V30 35 C 9.805789 4.566444 -11.589192 0
M  V30 36 C 12.337683 5.864451 -22.411846 0
M  V30 37 C 11.611560 7.888388 -19.854981 0
M  V30 38 C 5.725762 5.753708 -12.496451 0
M  V30 39 C 14.026513 7.227118 -17.827674 0
M  V30 40 C 8.776604 4.618185 -16.553804 0 CFG=2
M  V30 41 C 5.334869 6.185266 -13.891423 0
M  V30 42 C 5.305500 3.415020 -13.110866 0
M  V30 43 C 12.966031 2.991111 -17.119719 0
M  V30 44 C 10.249495 4.383686 -16.956622 0
M  V30 45 O 8.166363 5.417182 -17.556633 0
M  V30 46 C 9.135234 5.452173 -12.646890 0
M  V30 47 C 9.473051 4.961533 -14.052284 0
M  V30 48 C 7.327037 1.869078 -13.122885 0
M  V30 49 C 6.230933 8.102638 -11.890241 0
M  V30 50 H 15.177088 8.634208 -16.811193 0
M  V30 51 H 16.119544 7.859789 -18.098126 0
M  V30 52 H 13.775679 9.698957 -18.328002 0
M  V30 53 H 5.771853 1.923322 -11.617483 0
M  V30 54 H 5.269886 1.256884 -13.134943 0
M  V30 55 H 8.424880 6.423758 -7.996874 0
M  V30 56 H 6.961763 5.947090 -8.858140 0
M  V30 57 H 7.511268 4.963469 -7.493255 0
M  V30 58 H 10.060733 5.423056 -19.576936 0
M  V30 59 H 10.158883 2.321869 -17.460322 0
M  V30 60 H 14.595407 3.192674 -18.156022 0
M  V30 61 H 12.099811 2.140645 -18.854351 0
M  V30 62 H 9.329867 3.808972 -22.054082 0
M  V30 63 H 8.280292 4.846017 -21.101966 0
M  V30 64 H 9.599544 5.548056 -21.997647 0
M  V30 65 H 14.959390 10.888490 -17.449057 0
M  V30 66 H 5.973752 4.168413 -11.241785 0
M  V30 67 H 10.187317 9.212208 -20.816805 0
M  V30 68 H 11.643217 8.949006 -21.775139 0
M  V30 69 H 10.395981 7.711237 -21.671572 0
M  V30 70 H 14.328492 5.566373 -19.204799 0
M  V30 71 H 8.912804 6.383681 -15.486199 0
M  V30 72 H 10.191490 3.335691 -8.956768 0
M  V30 73 H 10.334734 4.899504 -8.048617 0
M  V30 74 H 11.657529 2.243565 -20.910835 0
M  V30 75 H 11.694837 3.229359 -22.289981 0
M  V30 76 H 8.626593 3.477517 -19.078444 0
M  V30 77 H 9.753910 2.418726 -19.820224 0
M  V30 78 H 8.520350 1.623757 -14.903561 0
M  V30 79 H 6.975891 0.765339 -14.935401 0
M  V30 80 H 7.011411 2.507997 -15.163097 0
M  V30 81 H 10.058555 6.201517 -10.140978 0
M  V30 82 H 13.884039 9.906588 -20.605224 0
M  V30 83 H 15.595632 9.512156 -20.614371 0
M  V30 84 H 13.856037 2.057011 -22.026680 0
M  V30 85 H 14.175778 3.768977 -21.773234 0
M  V30 86 H 14.055799 2.680708 -20.401066 0
M  V30 87 H 7.892493 4.023830 -9.779878 0
M  V30 88 H 9.398042 3.551904 -11.564570 0
M  V30 89 H 10.831671 4.428509 -11.937864 0
M  V30 90 H 12.699518 6.789802 -22.841414 0
M  V30 91 H 12.050196 5.083487 -23.088373 0
M  V30 92 H 10.851461 7.476711 -19.192062 0
M  V30 93 H 12.052789 8.711563 -19.301861 0
M  V30 94 H 13.080511 7.689440 -17.528357 0
M  V30 95 H 14.216464 6.462991 -17.073416 0
M  V30 96 H 8.242439 3.668702 -16.484503 0
M  V30 97 H 4.903603 7.168599 -13.882226 0
M  V30 98 H 4.599332 5.517149 -14.341445 0
M  V30 99 H 4.217907 3.415378 -13.197796 0
M  V30 100 H 5.672442 3.670579 -14.097263 0
M  V30 101 H 12.612428 2.253282 -16.392373 0
M  V30 102 H 13.061193 3.937037 -16.590114 0
M  V30 103 H 10.805925 4.106483 -16.066468 0
M  V30 104 H 10.688159 5.319679 -17.301948 0
M  V30 105 H 8.524976 6.290537 -17.504443 0
M  V30 106 H 9.472024 6.481276 -12.544676 0
M  V30 107 H 8.076210 5.404007 -12.462342 0
M  V30 108 H 9.373738 3.896747 -14.006429 0
M  V30 109 H 10.511350 5.238856 -14.241801 0
M  V30 110 H 7.905328 2.730111 -12.808830 0
M  V30 111 H 7.747462 1.011182 -12.594932 0
M  V30 112 H 5.398539 8.390193 -12.516656 0
M  V30 113 H 6.060415 8.783719 -11.069426 0
M  V30 114 H 6.392877 6.378151 -10.657454 0
M  V30 END ATOM
M  V30 BEGIN BOND
M  V30 1 1 2 1
M  V30 2 1 10 7
M  V30 3 1 10 8
M  V30 4 1 11 5
M  V30 5 1 12 2
M  V30 6 1 19 5
M  V30 7 1 19 7
M  V30 8 1 19 20 CFG=3
M  V30 9 1 21 15
M  V30 10 2 23 6
M  V30 11 1 25 19
M  V30 12 1 25 21
M  V30 13 1 26 5
M  V30 14 1 26 8
M  V30 15 1 28 6
M  V30 16 1 28 16
M  V30 17 1 29 15
M  V30 18 2 29 17
M  V30 19 1 29 21
M  V30 20 1 30 18
M  V30 21 1 31 2
M  V30 22 1 29 31 CFG=1
M  V30 23 1 32 20
M  V30 24 1 33 4
M  V30 25 1 33 18
M  V30 26 1 33 30
M  V30 27 1 34 22
M  V30 28 1 35 30
M  V30 29 2 36 25
M  V30 30 1 37 14
M  V30 31 1 21 37 CFG=1
M  V30 32 1 38 13
M  V30 33 2 38 24
M  V30 34 1 39 1
M  V30 35 1 39 15
M  V30 36 1 40 16
M  V30 37 1 41 6
M  V30 38 1 41 38
M  V30 39 1 42 3
M  V30 40 1 42 13
M  V30 41 1 43 9
M  V30 42 1 43 10
M  V30 43 1 44 8
M  V30 44 1 44 40
M  V30 45 1 45 40
M  V30 46 1 46 35
M  V30 47 1 47 16
M  V30 48 1 47 46
M  V30 49 1 48 3
M  V30 50 1 48 27
M  V30 51 1 49 22
M  V30 52 1 49 24
M  V30 53 1 50 1
M  V30 54 1 51 1
M  V30 55 1 2 52 CFG=1
M  V30 56 1 53 3
M  V30 57 1 54 3
M  V30 58 1 55 4
M  V30 59 1 56 4
M  V30 60 1 57 4
M  V30 61 1 5 58 CFG=1
M  V30 62 1 8 59 CFG=1
M  V30 63 1 60 9
M  V30 64 1 10 61 CFG=3
M  V30 65 1 62 11
M  V30 66 1 63 11
M  V30 67 1 64 11
M  V30 68 1 65 12
M  V30 69 1 66 13
M  V30 70 1 67 14
M  V30 71 1 68 14
M  V30 72 1 69 14
M  V30 73 1 15 70 CFG=1
M  V30 74 1 16 71 CFG=3
M  V30 75 1 72 18
M  V30 76 1 73 18
M  V30 77 1 74 20
M  V30 78 1 75 20
M  V30 79 1 76 26
M  V30 80 1 77 26
M  V30 81 1 78 27
M  V30 82 1 79 27
M  V30 83 1 80 27
M  V30 84 1 30 81 CFG=3
M  V30 85 1 82 31
M  V30 86 1 83 31
M  V30 87 1 84 32
M  V30 88 1 85 32
M  V30 89 1 86 32
M  V30 90 1 33 87 CFG=3
M  V30 91 1 88 35
M  V30 92 1 89 35
M  V30 93 1 90 36
M  V30 94 1 91 36
M  V30 95 1 92 37
M  V30 96 1 93 37
M  V30 97 1 94 39
M  V30 98 1 95 39
M  V30 99 1 40 96 CFG=1
M  V30 100 1 97 41
M  V30 101 1 98 41
M  V30 102 1 99 42
M  V30 103 1 100 42
M  V30 104 1 101 43
M  V30 105 1 102 43
M  V30 106 1 103 44
M  V30 107 1 104 44
M  V30 108 1 105 45
M  V30 109 1 106 46
M  V30 110 1 107 46
M  V30 111 1 108 47
M  V30 112 1 109 47
M  V30 113 1 110 48
M  V30 114 1 111 48
M  V30 115 1 112 49
M  V30 116 1 113 49
M  V30 117 1 114 24
M  V30 END BOND
M  V30 END CTAB
M  END
>  <i_epik_Tot_Q>  (1) 
1

>  <i_epik_Tot_abs_Q>  (1) 
1

>  <i_i_glide_confnum>  (1) 
9973

>  <i_i_glide_lignum>  (1) 
154

>  <i_i_glide_posenum>  (1) 
201

>  <i_i_glide_rotatable_bonds>  (1) 
25

>  <i_lp_mmshare_version>  (1) 
72125

>  <i_m_source_file_index>  (1) 
87

>  <i_f3d_flags>  (1) 
0

>  <num_sample>  (1) 
100

>  <b_lp_Chiralities_Consistent>  (1) 
1

>  <r_epik_Charging_Adjusted_Penalty>  (1) 
0.16001273794586685

>  <r_epik_Ionization_Penalty>  (1) 
0.080843455150849161

>  <r_epik_Ionization_Penalty_Charging>  (1) 
0.080842825825004877

>  <r_epik_Ionization_Penalty_Neutral>  (1) 
6.2932584428919515e-07

>  <r_epik_State_Penalty>  (1) 
0.079169912120861954

>  <r_glide_ring_energy>  (1) 
0

>  <r_i_docking_score>  (1) 
-2.3266840350656901

>  <r_i_glide_ecoul>  (1) 
-5.7948805301977195

>  <r_i_glide_eff_state_penalty>  (1) 
0.079169912120861954

>  <r_i_glide_einternal>  (1) 
12.204403403208495

>  <r_i_glide_emodel>  (1) 
0.74690603667304689

>  <r_i_glide_emodel_strain>  (1) 
1.1874699943795193

>  <r_i_glide_energy>  (1) 
-1.2433420012621816

>  <r_i_glide_erotb>  (1) 
0.57386026422142977

>  <r_i_glide_esite>  (1) 
-0.32129616685460061

>  <r_i_glide_evdw>  (1) 
4.5515385289355379

>  <r_i_glide_gscore>  (1) 
-2.4058539471865519

>  <r_i_glide_gscore_strain>  (1) 
0

>  <r_i_glide_hbond>  (1) 
-0.05977784111398933

>  <r_i_glide_ligand_efficiency>  (1) 
-0.04748334765440184

>  <r_i_glide_ligand_efficiency_ln>  (1) 
-0.47562745425549008

>  <r_i_glide_ligand_efficiency_sa>  (1) 
-0.17375608520275854

>  <r_i_glide_lipo>  (1) 
-1.4519760143303344

>  <r_i_glide_metal>  (1) 
-0

>  <r_i_glide_rewards>  (1) 
-0.50500903602617619

>  <r_lp_Energy>  (1) 
45.628945999999999

>  <s_epik_Chemistry_Notes>  (1) 
This compound has an ester and may undergo hydrolysis at high or low pH. This compound has an imine and may undergo hydrolysis. This compound contains an acetal/aminal-like group ( X-CH(R)-Y where X, Y are N, S, or O) that may be acid/base labile, releasing an aldehyde.

>  <s_epik_cmdline>  (1) 
J2VwaWtfcHl0aG9uJywgJy1waHQnLCAnMS4wJywgJy1waCcsICc3LjQnLCAnLXRuJywgJzgnLCAnLW1hJywgJzUwMCcsICctaW1hZScsICc8aW5maWxlLm1hZT4nLCAnLW9tYWUnLCAnPG91dGZpbGUubWFlPic=

>  <s_epik_input>  (1) 
W09IXVtDQEBIXShbQ0gyXTEpW0NIMl1bQ0gyXVtDQEhdKFAxMj1PKVtDQEBdMihbQ0gyXVtDSDNdKUMoPVtDSDJdKVtDQF0zKFtDSDJdW0NIM10pW0NAQEhdKFtDSDNdKVtDSDJdW0NAQEhdKFtDQEBIXShPMylbQ0gyXVtPSF0pW0NIMl1bQ0BIXShbT0hdKVtDQEhdKFtDSDJdW0NIMl1bQ0gyXVtDQEBIXTRbQ0gyXVtDQEhdNFtDSDNdKU9DKD1PKVtDSDJdQyg9TlxbQ0gyXU9GKS9bTkhdW0NIMl1bQ0gyXVtDSDJdW0NIM10=

>  <s_glide_docking_method>  (1) 
confgen

>  <s_i_glide_gridfile>  (1) 
gpcr_drd2_6luq_protein_autoprepared_prepared

>  <s_lp_Force_Field>  (1) 
S-OPLS

>  <s_lp_Variant>  (1) 
DiffSBDD_86-2

>  <s_m_source_file>  (1) 
generated_generic_title2_ligand_DiffSBDD_2026-06-23_prepared.sdf

>  <GenAI_Model>  (1) 
DiffSBDD

>  <Protein>  (1) 
generic_title2

$$$$
DiffSBDD_26
     RDKit          3D

  0  0  0  0  0  0  0  0  0  0999 V3000
M  V30 BEGIN CTAB
M  V30 COUNTS 56 58 0 0 1
M  V30 BEGIN ATOM
M  V30 1 C 6.988107 4.644842 -15.451180 0
M  V30 2 O 11.335310 7.190226 -11.585068 0
M  V30 3 C 7.067801 1.435575 -16.049998 0 CFG=1
M  V30 4 C 6.981100 4.974075 -10.108659 0
M  V30 5 C 5.120420 0.390251 -14.751068 0
M  V30 6 C 9.077792 4.361933 -14.192516 0
M  V30 7 C 7.434880 5.142027 -12.454388 0 CFG=2
M  V30 8 C 5.844607 5.633623 -10.911047 0
M  V30 9 C 6.383948 6.974096 -14.429969 0
M  V30 10 N 6.514157 6.196653 -12.080540 0
M  V30 11 N 9.360701 5.522663 -10.824829 0 CHG=1
M  V30 12 C 8.100717 1.185304 -17.157150 0
M  V30 13 C 9.283940 6.943868 -10.422458 0
M  V30 14 C 5.607339 6.531275 -13.172213 0
M  V30 15 C 6.397391 0.111755 -15.563541 0
M  V30 16 C 7.464649 5.960914 -14.838941 0 CFG=1
M  V30 17 C 8.176009 3.685943 -15.259056 0 CFG=1
M  V30 18 C 8.109959 4.776088 -11.126221 0 CFG=1
M  V30 19 O 8.138256 1.902641 -18.154794 0
M  V30 20 C 7.726622 2.244540 -14.896420 0
M  V30 21 O 11.033195 8.390255 -9.732916 0 CHG=-1
M  V30 22 C 8.319831 5.554334 -13.643152 0 CFG=2
M  V30 23 C 6.019715 -0.866993 -16.698777 0
M  V30 24 C 10.666429 7.564244 -10.594894 0
M  V30 25 H 6.711337 4.757598 -16.499929 0
M  V30 26 H 6.112702 4.280966 -14.917035 0
M  V30 27 H 6.283247 2.043609 -16.499808 0
M  V30 28 H 6.647109 4.019223 -9.701675 0
M  V30 29 H 7.274787 5.590021 -9.260110 0
M  V30 30 H 4.333506 0.790106 -15.388282 0
M  V30 31 H 5.280249 1.074874 -13.920159 0
M  V30 32 H 4.717046 -0.518642 -14.324555 0
M  V30 33 H 9.375298 3.679551 -13.395824 0
M  V30 34 H 9.994236 4.721039 -14.665613 0
M  V30 35 H 6.832313 4.281536 -12.750875 0
M  V30 36 H 5.123253 4.875592 -11.220976 0
M  V30 37 H 5.306724 6.389429 -10.341673 0
M  V30 38 H 6.873073 7.928948 -14.232655 0
M  V30 39 H 5.694999 7.148554 -15.256876 0
M  V30 40 H 9.950478 5.524693 -11.648073 0
M  V30 41 H 8.776200 0.346831 -16.991690 0
M  V30 42 H 8.577184 7.498541 -11.039846 0
M  V30 43 H 8.975517 7.025093 -9.380030 0
M  V30 44 H 4.975279 5.675580 -13.407327 0
M  V30 45 H 4.975371 7.350788 -12.837353 0
M  V30 46 H 7.099935 -0.404267 -14.906308 0
M  V30 47 H 8.125552 6.390209 -15.584699 0
M  V30 48 H 8.758262 3.668472 -16.180718 0
M  V30 49 H 8.400202 3.726743 -11.175953 0
M  V30 50 H 7.054955 2.307711 -14.043533 0
M  V30 51 H 8.575270 1.670976 -14.527292 0
M  V30 52 H 8.986211 6.367499 -13.355890 0
M  V30 53 H 5.393734 -0.381912 -17.449089 0
M  V30 54 H 5.461158 -1.720119 -16.310995 0
M  V30 55 H 6.895101 -1.278299 -17.201321 0
M  V30 56 H 9.858846 5.043609 -10.090799 0
M  V30 END ATOM
M  V30 BEGIN BOND
M  V30 1 1 8 4
M  V30 2 1 10 7
M  V30 3 1 10 8
M  V30 4 1 12 3
M  V30 5 1 13 11
M  V30 6 1 14 9
M  V30 7 1 14 10
M  V30 8 1 15 3
M  V30 9 1 15 5
M  V30 10 1 16 1
M  V30 11 1 16 9
M  V30 12 1 17 1
M  V30 13 1 17 6
M  V30 14 1 18 4
M  V30 15 1 18 7
M  V30 16 1 18 11
M  V30 17 2 19 12
M  V30 18 1 20 3
M  V30 19 1 20 17
M  V30 20 1 22 6
M  V30 21 1 22 7
M  V30 22 1 22 16
M  V30 23 1 23 15
M  V30 24 2 24 2
M  V30 25 1 24 13
M  V30 26 1 24 21
M  V30 27 1 25 1
M  V30 28 1 26 1
M  V30 29 1 3 27 CFG=3
M  V30 30 1 28 4
M  V30 31 1 29 4
M  V30 32 1 30 5
M  V30 33 1 31 5
M  V30 34 1 32 5
M  V30 35 1 33 6
M  V30 36 1 34 6
M  V30 37 1 7 35 CFG=3
M  V30 38 1 36 8
M  V30 39 1 37 8
M  V30 40 1 38 9
M  V30 41 1 39 9
M  V30 42 1 40 11
M  V30 43 1 41 12
M  V30 44 1 42 13
M  V30 45 1 43 13
M  V30 46 1 44 14
M  V30 47 1 45 14
M  V30 48 1 46 15
M  V30 49 1 16 47 CFG=3
M  V30 50 1 17 48 CFG=3
M  V30 51 1 18 49 CFG=3
M  V30 52 1 50 20
M  V30 53 1 51 20
M  V30 54 1 22 52 CFG=1
M  V30 55 1 53 23
M  V30 56 1 54 23
M  V30 57 1 55 23
M  V30 58 1 56 11
M  V30 END BOND
M  V30 END CTAB
M  END
>  <i_epik_Tot_Q>  (1) 
0

>  <i_epik_Tot_abs_Q>  (1) 
2

>  <i_i_glide_confnum>  (1) 
19

>  <i_i_glide_lignum>  (1) 
47

>  <i_i_glide_posenum>  (1) 
155

>  <i_i_glide_rotatable_bonds>  (1) 
7

>  <i_lp_mmshare_version>  (1) 
72125

>  <i_m_source_file_index>  (1) 
27

>  <i_f3d_flags>  (1) 
0

>  <num_sample>  (1) 
100

>  <b_lp_Chiralities_Consistent>  (1) 
1

>  <r_epik_Charging_Adjusted_Penalty>  (1) 
0.88863216281337021

>  <r_epik_Ionization_Penalty>  (1) 
0.10008493971951925

>  <r_epik_Ionization_Penalty_Charging>  (1) 
0.025347597467073411

>  <r_epik_Ionization_Penalty_Neutral>  (1) 
0.07473734225244584

>  <r_epik_State_Penalty>  (1) 
0.86328456534629683

>  <r_glide_ring_energy>  (1) 
0

>  <r_i_docking_score>  (1) 
-2.3190465324208498

>  <r_i_glide_ecoul>  (1) 
-3.0720867192653802

>  <r_i_glide_eff_state_penalty>  (1) 
0.86328456534629683

>  <r_i_glide_einternal>  (1) 
6.3864817395091453

>  <r_i_glide_emodel>  (1) 
-25.143721538451917

>  <r_i_glide_emodel_strain>  (1) 
0.22535365864254686

>  <r_i_glide_energy>  (1) 
-23.975947997950236

>  <r_i_glide_erotb>  (1) 
0.66727664270853937

>  <r_i_glide_esite>  (1) 
-0.017258663220423066

>  <r_i_glide_evdw>  (1) 
-20.903861278684854

>  <r_i_glide_gscore>  (1) 
-3.1823310977671468

>  <r_i_glide_gscore_strain>  (1) 
0

>  <r_i_glide_hbond>  (1) 
0

>  <r_i_glide_ligand_efficiency>  (1) 
-0.096626938850868746

>  <r_i_glide_ligand_efficiency_ln>  (1) 
-0.55505424931964586

>  <r_i_glide_ligand_efficiency_sa>  (1) 
-0.27872032207557135

>  <r_i_glide_lipo>  (1) 
-1.0001058972461747

>  <r_i_glide_metal>  (1) 
-0

>  <r_i_glide_rewards>  (1) 
-1.3262371081850393

>  <r_lp_Energy>  (1) 
21.078503999999999

>  <s_epik_cmdline>  (1) 
J2VwaWtfcHl0aG9uJywgJy1waHQnLCAnMS4wJywgJy1waCcsICc3LjQnLCAnLXRuJywgJzgnLCAnLW1hJywgJzUwMCcsICctaW1hZScsICc8aW5maWxlLm1hZT4nLCAnLW9tYWUnLCAnPG91dGZpbGUubWFlPic=

>  <s_epik_input>  (1) 
W0NIM11bQ0hdKFtDSDNdKVtDQEhdKFtDSF09TylbQ0gyXVtDQEBIXShbQ0gyXTEpW0NIMl1bQ0BIXTJbQ0BASF0xW0NIMl1bQ0gyXU4oW0NAQEhdMjMpW0NIMl1bQ0gyXVtDQEBIXTNbTkhdW0NIMl1DKD1PKVtPSF0=

>  <s_glide_docking_method>  (1) 
confgen

>  <s_i_glide_gridfile>  (1) 
gpcr_drd2_6luq_protein_autoprepared_prepared

>  <s_lp_Force_Field>  (1) 
S-OPLS

>  <s_lp_Variant>  (1) 
DiffSBDD_26-3

>  <s_m_source_file>  (1) 
generated_generic_title2_ligand_DiffSBDD_2026-06-23_prepared.sdf

>  <GenAI_Model>  (1) 
DiffSBDD

>  <Protein>  (1) 
generic_title2

$$$$
DiffSBDD_43
     RDKit          3D

  0  0  0  0  0  0  0  0  0  0999 V3000
M  V30 BEGIN CTAB
M  V30 COUNTS 73 80 0 0 1
M  V30 BEGIN ATOM
M  V30 1 C 10.663795 3.686840 -17.527115 0 CFG=1
M  V30 2 C 12.162966 3.436702 -17.545724 0 CFG=2
M  V30 3 C 11.735248 5.237650 -19.181971 0 CFG=1
M  V30 4 C 14.359137 8.961426 -21.220804 0
M  V30 5 C 7.315560 1.630312 -17.327176 0
M  V30 6 C 7.424985 0.951365 -18.690137 0
M  V30 7 C 10.386443 4.806554 -18.564144 0
M  V30 8 S 3.801510 -4.134649 -19.955593 0
M  V30 9 C 5.091234 -1.658687 -19.508161 0 CFG=1
M  V30 10 C 5.300317 -3.163890 -19.669266 0 CFG=1
M  V30 11 C 12.103313 8.075855 -22.298496 0
M  V30 12 C 5.989198 -1.995002 -17.148922 0
M  V30 13 C 12.009434 6.752134 -19.197714 0
M  V30 14 C 5.004310 -1.223787 -18.042566 0 CFG=1
M  V30 15 C 4.948728 -3.242677 -22.313608 0
M  V30 16 C 12.917187 7.029402 -21.570930 0 CFG=1
M  V30 17 N 6.252243 0.349344 -19.179532 0
M  V30 18 C 13.614688 8.160537 -22.261853 0 CFG=2
M  V30 19 O 6.252654 -3.735779 -18.785106 0
M  V30 20 C 8.575119 0.952953 -19.386561 0
M  V30 21 C 13.783329 8.518835 -19.865222 0
M  V30 22 C 10.855799 0.373546 -18.700102 0
M  V30 23 C 5.920235 -3.502630 -17.422242 0
M  V30 24 C 6.221238 -0.803237 -20.062374 0
M  V30 25 C 9.741910 2.424907 -17.586243 0 CFG=1
M  V30 26 C 8.283293 2.819388 -17.261372 0
M  V30 27 C 5.273371 -3.908139 -20.991841 0 CFG=2
M  V30 28 C 12.797539 4.473161 -18.430886 0 CFG=2
M  V30 29 C 13.008206 3.022713 -18.734827 0
M  V30 30 F 10.241066 -0.641457 -18.086450 0
M  V30 31 O 5.371987 0.149826 -18.066095 0
M  V30 32 F 11.242823 -0.009692 -19.915415 0
M  V30 33 F 11.944276 0.641761 -17.987654 0
M  V30 34 C 13.221381 7.104924 -20.088121 0 CFG=1
M  V30 35 C 9.881024 1.565460 -18.881867 0 CFG=2
M  V30 36 H 10.482495 4.140728 -16.551108 0
M  V30 37 H 12.608436 3.252956 -16.569550 0
M  V30 38 H 11.744324 4.879727 -20.212388 0
M  V30 39 H 14.241322 10.029740 -21.395078 0
M  V30 40 H 15.420447 8.718573 -21.281939 0
M  V30 41 H 6.311469 1.991165 -17.110591 0
M  V30 42 H 7.567641 0.901042 -16.556211 0
M  V30 43 H 9.708361 4.471864 -19.349310 0
M  V30 44 H 9.896246 5.649438 -18.074971 0
M  V30 45 H 4.175411 -1.354380 -20.010114 0
M  V30 46 H 11.536705 8.790027 -21.704409 0
M  V30 47 H 11.640985 7.787296 -23.240372 0
M  V30 48 H 7.011108 -1.657808 -17.324798 0
M  V30 49 H 5.773772 -1.784691 -16.101192 0
M  V30 50 H 11.129604 7.290253 -19.552902 0
M  V30 51 H 12.181641 7.097432 -18.177086 0
M  V30 52 H 3.989528 -1.338587 -17.660504 0
M  V30 53 H 5.861350 -2.865786 -22.775028 0
M  V30 54 H 4.489050 -3.961813 -22.991635 0
M  V30 55 H 4.259749 -2.409771 -22.178884 0
M  V30 56 H 12.967813 6.040984 -22.023553 0
M  V30 57 H 14.145645 7.957713 -23.189994 0
M  V30 58 H 8.614168 0.473474 -20.353625 0
M  V30 59 H 12.975022 9.186893 -19.584964 0
M  V30 60 H 14.521957 8.555438 -19.064136 0
M  V30 61 H 6.630921 -4.039499 -16.796273 0
M  V30 62 H 4.931812 -3.899569 -17.186163 0
M  V30 63 H 6.041616 -0.509286 -21.096801 0
M  V30 64 H 7.168684 -1.341284 -20.011972 0
M  V30 65 H 10.046142 1.771822 -16.772451 0
M  V30 66 H 7.939976 3.582358 -17.960745 0
M  V30 67 H 8.231432 3.272541 -16.270748 0
M  V30 68 H 5.820235 -4.846917 -21.054578 0
M  V30 69 H 13.628775 5.038205 -18.013024 0
M  V30 70 H 12.518178 2.622509 -19.618911 0
M  V30 71 H 13.992342 2.607834 -18.527742 0
M  V30 72 H 14.038190 6.408217 -19.897059 0
M  V30 73 H 10.241467 2.209718 -19.682450 0
M  V30 END ATOM
M  V30 BEGIN BOND
M  V30 1 1 2 1
M  V30 2 1 6 5
M  V30 3 1 7 1
M  V30 4 1 7 3
M  V30 5 1 10 8
M  V30 6 1 10 9
M  V30 7 1 13 3
M  V30 8 1 14 9
M  V30 9 1 14 12
M  V30 10 1 16 11
M  V30 11 1 17 6
M  V30 12 1 18 4
M  V30 13 1 18 11
M  V30 14 1 18 16
M  V30 15 1 10 19 CFG=1
M  V30 16 2 20 6
M  V30 17 1 21 4
M  V30 18 1 23 12
M  V30 19 1 23 19
M  V30 20 1 24 9
M  V30 21 1 24 17
M  V30 22 1 25 1
M  V30 23 1 26 5
M  V30 24 1 26 25
M  V30 25 1 27 8
M  V30 26 1 27 10
M  V30 27 1 27 15
M  V30 28 1 28 2
M  V30 29 1 28 3
M  V30 30 1 29 2
M  V30 31 1 29 28
M  V30 32 1 30 22
M  V30 33 1 31 14
M  V30 34 1 31 17
M  V30 35 1 32 22
M  V30 36 1 33 22
M  V30 37 1 34 13
M  V30 38 1 34 16
M  V30 39 1 34 21
M  V30 40 1 35 20
M  V30 41 1 35 22
M  V30 42 1 35 25
M  V30 43 1 1 36 CFG=1
M  V30 44 1 2 37 CFG=1
M  V30 45 1 3 38 CFG=3
M  V30 46 1 39 4
M  V30 47 1 40 4
M  V30 48 1 41 5
M  V30 49 1 42 5
M  V30 50 1 43 7
M  V30 51 1 44 7
M  V30 52 1 9 45 CFG=3
M  V30 53 1 46 11
M  V30 54 1 47 11
M  V30 55 1 48 12
M  V30 56 1 49 12
M  V30 57 1 50 13
M  V30 58 1 51 13
M  V30 59 1 14 52 CFG=1
M  V30 60 1 53 15
M  V30 61 1 54 15
M  V30 62 1 55 15
M  V30 63 1 16 56 CFG=3
M  V30 64 1 18 57 CFG=3
M  V30 65 1 58 20
M  V30 66 1 59 21
M  V30 67 1 60 21
M  V30 68 1 61 23
M  V30 69 1 62 23
M  V30 70 1 63 24
M  V30 71 1 64 24
M  V30 72 1 25 65 CFG=1
M  V30 73 1 66 26
M  V30 74 1 67 26
M  V30 75 1 27 68 CFG=3
M  V30 76 1 28 69 CFG=1
M  V30 77 1 70 29
M  V30 78 1 71 29
M  V30 79 1 34 72 CFG=3
M  V30 80 1 35 73 CFG=3
M  V30 END BOND
M  V30 END CTAB
M  END
>  <i_epik_Tot_Q>  (1) 
0

>  <i_epik_Tot_abs_Q>  (1) 
0

>  <i_i_glide_confnum>  (1) 
114

>  <i_i_glide_lignum>  (1) 
70

>  <i_i_glide_posenum>  (1) 
224

>  <i_i_glide_rotatable_bonds>  (1) 
5

>  <i_lp_mmshare_version>  (1) 
72125

>  <i_m_source_file_index>  (1) 
44

>  <i_f3d_flags>  (1) 
0

>  <num_sample>  (1) 
100

>  <b_lp_Chiralities_Consistent>  (1) 
1

>  <r_epik_Charging_Adjusted_Penalty>  (1) 
0

>  <r_epik_Ionization_Penalty>  (1) 
0.0012510015798316548

>  <r_epik_Ionization_Penalty_Charging>  (1) 
0

>  <r_epik_Ionization_Penalty_Neutral>  (1) 
0.0012510015798316548

>  <r_epik_State_Penalty>  (1) 
-0

>  <r_glide_ring_energy>  (1) 
1.7881069195932777

>  <r_i_docking_score>  (1) 
-2.2980700249767994

>  <r_i_glide_ecoul>  (1) 
-1.6035141274743312

>  <r_i_glide_eff_state_penalty>  (1) 
-0

>  <r_i_glide_einternal>  (1) 
1.7498771770169306

>  <r_i_glide_emodel>  (1) 
-24.949428996790672

>  <r_i_glide_emodel_strain>  (1) 
1.3680100337822694

>  <r_i_glide_energy>  (1) 
-23.876411762212161

>  <r_i_glide_erotb>  (1) 
0.31537474361301371

>  <r_i_glide_esite>  (1) 
0

>  <r_i_glide_evdw>  (1) 
-22.272897634737831

>  <r_i_glide_gscore>  (1) 
-2.2980700249767994

>  <r_i_glide_gscore_strain>  (1) 
0

>  <r_i_glide_hbond>  (1) 
0

>  <r_i_glide_ligand_efficiency>  (1) 
-0.065659143570765702

>  <r_i_glide_ligand_efficiency_ln>  (1) 
-0.5044773733986474

>  <r_i_glide_ligand_efficiency_sa>  (1) 
-0.21477541249016743

>  <r_i_glide_lipo>  (1) 
-0.88325446959704346

>  <r_i_glide_metal>  (1) 
-0

>  <r_i_glide_rewards>  (1) 
-0.37601829813472826

>  <r_lp_Energy>  (1) 
25.974439

>  <r_lp_tautomer_probability>  (1) 
1

>  <s_epik_Chemistry_Notes>  (1) 
This compound has a N-S or N-O group and may undergo hydrolysis at high or low pH.

>  <s_epik_cmdline>  (1) 
J2VwaWtfcHl0aG9uJywgJy1waHQnLCAnMS4wJywgJy1waCcsICc3LjQnLCAnLXRuJywgJzgnLCAnLW1hJywgJzUwMCcsICctaW1hZScsICc8aW5maWxlLm1hZT4nLCAnLW9tYWUnLCAnPG91dGZpbGUubWFlPic=

>  <s_epik_input>  (1) 
W0NIMl0xW0NASF0oW0NASF0xMilbQ0gyXVtDSDJdW0NASF0yW0NIMl1bQ0BASF0oW0NAQEhdKFtDQEBIXTM0KVtDSDJdNClbQ0gyXVtDQEhdM1tDQEBIXShbQ0gyXVtDSDJdNSlbQ0BASF0oQyhGKShGKUYpW0NIXT1DNU4oW0NIMl02KU9bQ0BASF0oW0NIMl1bQ0gyXU83KVtDQEBIXTZbQ0BAXTc4U1tDQEhdOFtDSDNd

>  <s_glide_docking_method>  (1) 
confgen

>  <s_i_glide_gridfile>  (1) 
gpcr_drd2_6luq_protein_autoprepared_prepared

>  <s_lp_Force_Field>  (1) 
S-OPLS

>  <s_lp_Variant>  (1) 
DiffSBDD_43-2

>  <s_m_source_file>  (1) 
generated_generic_title2_ligand_DiffSBDD_2026-06-23_prepared.sdf

>  <GenAI_Model>  (1) 
DiffSBDD

>  <Protein>  (1) 
generic_title2

$$$$
DiffSBDD_26
     RDKit          3D

  0  0  0  0  0  0  0  0  0  0999 V3000
M  V30 BEGIN CTAB
M  V30 COUNTS 56 58 0 0 1
M  V30 BEGIN ATOM
M  V30 1 C 10.501956 7.318842 -20.541357 0
M  V30 2 O 13.888866 1.282821 -19.000974 0
M  V30 3 C 7.124235 5.614048 -19.409876 0 CFG=1
M  V30 4 C 13.142755 5.521102 -16.169584 0
M  V30 5 C 5.290570 4.428499 -20.760018 0
M  V30 6 C 10.273991 4.983966 -19.815295 0
M  V30 7 C 12.162774 5.833501 -18.310011 0 CFG=2
M  V30 8 C 13.703806 6.764585 -16.871931 0
M  V30 9 C 13.094154 7.456328 -20.517895 0
M  V30 10 N 13.442167 6.533016 -18.287578 0
M  V30 11 N 13.253905 3.658960 -17.817335 0 CHG=1
M  V30 12 C 6.382155 5.701919 -18.069336 0
M  V30 13 C 13.387226 2.443709 -16.995115 0
M  V30 14 C 13.353293 7.779799 -19.037460 0
M  V30 15 C 6.173177 5.685233 -20.642256 0
M  V30 16 C 11.834922 6.591873 -20.721118 0 CFG=1
M  V30 17 C 9.474589 6.192821 -20.354934 0 CFG=1
M  V30 18 C 12.405952 4.737290 -17.263348 0 CFG=1
M  V30 19 O 6.057742 6.790212 -17.596609 0
M  V30 20 C 8.298719 6.622038 -19.457483 0
M  V30 21 O 15.082561 0.797520 -17.185038 0 CHG=-1
M  V30 22 C 11.753637 5.405609 -19.746498 0 CFG=2
M  V30 23 C 5.298889 6.955524 -20.713782 0
M  V30 24 C 14.186853 1.419027 -17.793624 0
M  V30 25 H 10.261762 7.960277 -21.390215 0
M  V30 26 H 10.533875 7.955703 -19.656539 0
M  V30 27 H 7.568867 4.618923 -19.407470 0
M  V30 28 H 12.441455 5.838879 -15.397190 0
M  V30 29 H 13.924937 4.944977 -15.674751 0
M  V30 30 H 4.575484 4.354758 -19.941153 0
M  V30 31 H 5.894571 3.520543 -20.756999 0
M  V30 32 H 4.720708 4.435226 -21.689761 0
M  V30 33 H 9.907587 4.641287 -18.847076 0
M  V30 34 H 10.160653 4.144720 -20.502758 0
M  V30 35 H 11.398985 6.510026 -17.919441 0
M  V30 36 H 13.177938 7.655034 -16.520821 0
M  V30 37 H 14.769736 6.904752 -16.692795 0
M  V30 38 H 13.959081 6.926032 -20.918616 0
M  V30 39 H 13.011285 8.379193 -21.092840 0
M  V30 40 H 14.171263 4.033501 -18.010103 0
M  V30 41 H 6.175427 4.750284 -17.584936 0
M  V30 42 H 13.876075 2.665888 -16.046041 0
M  V30 43 H 12.402520 2.027340 -16.785018 0
M  V30 44 H 12.547591 8.390238 -18.635339 0
M  V30 45 H 14.279122 8.346768 -18.931796 0
M  V30 46 H 6.803649 5.693127 -21.531341 0
M  V30 47 H 11.853335 6.199142 -21.739270 0
M  V30 48 H 9.095785 5.932746 -21.343987 0
M  V30 49 H 11.465626 4.318223 -16.902208 0
M  V30 50 H 7.931500 7.590080 -19.791470 0
M  V30 51 H 8.692116 6.790237 -18.453652 0
M  V30 52 H 12.402553 4.607121 -20.106905 0
M  V30 53 H 4.576429 7.000775 -19.898245 0
M  V30 54 H 4.732744 6.982877 -21.645068 0
M  V30 55 H 5.895572 7.866154 -20.678581 0
M  V30 56 H 12.870674 3.338395 -18.695953 0
M  V30 END ATOM
M  V30 BEGIN BOND
M  V30 1 1 8 4
M  V30 2 1 10 7
M  V30 3 1 10 8
M  V30 4 1 12 3
M  V30 5 1 13 11
M  V30 6 1 14 9
M  V30 7 1 14 10
M  V30 8 1 15 3
M  V30 9 1 15 5
M  V30 10 1 16 1
M  V30 11 1 16 9
M  V30 12 1 17 1
M  V30 13 1 17 6
M  V30 14 1 18 4
M  V30 15 1 18 7
M  V30 16 1 18 11
M  V30 17 2 19 12
M  V30 18 1 20 3
M  V30 19 1 20 17
M  V30 20 1 22 6
M  V30 21 1 22 7
M  V30 22 1 22 16
M  V30 23 1 23 15
M  V30 24 2 24 2
M  V30 25 1 24 13
M  V30 26 1 24 21
M  V30 27 1 25 1
M  V30 28 1 26 1
M  V30 29 1 3 27 CFG=1
M  V30 30 1 28 4
M  V30 31 1 29 4
M  V30 32 1 30 5
M  V30 33 1 31 5
M  V30 34 1 32 5
M  V30 35 1 33 6
M  V30 36 1 34 6
M  V30 37 1 7 35 CFG=1
M  V30 38 1 36 8
M  V30 39 1 37 8
M  V30 40 1 38 9
M  V30 41 1 39 9
M  V30 42 1 40 11
M  V30 43 1 41 12
M  V30 44 1 42 13
M  V30 45 1 43 13
M  V30 46 1 44 14
M  V30 47 1 45 14
M  V30 48 1 46 15
M  V30 49 1 16 47 CFG=3
M  V30 50 1 17 48 CFG=3
M  V30 51 1 18 49 CFG=1
M  V30 52 1 50 20
M  V30 53 1 51 20
M  V30 54 1 22 52 CFG=3
M  V30 55 1 53 23
M  V30 56 1 54 23
M  V30 57 1 55 23
M  V30 58 1 56 11
M  V30 END BOND
M  V30 END CTAB
M  END
>  <i_epik_Tot_Q>  (1) 
0

>  <i_epik_Tot_abs_Q>  (1) 
2

>  <i_i_glide_confnum>  (1) 
19

>  <i_i_glide_lignum>  (1) 
47

>  <i_i_glide_posenum>  (1) 
284

>  <i_i_glide_rotatable_bonds>  (1) 
7

>  <i_lp_mmshare_version>  (1) 
72125

>  <i_m_source_file_index>  (1) 
27

>  <i_f3d_flags>  (1) 
0

>  <num_sample>  (1) 
100

>  <b_lp_Chiralities_Consistent>  (1) 
1

>  <r_epik_Charging_Adjusted_Penalty>  (1) 
0.88863216281337021

>  <r_epik_Ionization_Penalty>  (1) 
0.10008493971951925

>  <r_epik_Ionization_Penalty_Charging>  (1) 
0.025347597467073411

>  <r_epik_Ionization_Penalty_Neutral>  (1) 
0.07473734225244584

>  <r_epik_State_Penalty>  (1) 
0.86328456534629683

>  <r_glide_ring_energy>  (1) 
0

>  <r_i_docking_score>  (1) 
-2.28446053507174

>  <r_i_glide_ecoul>  (1) 
-2.747946261312987

>  <r_i_glide_eff_state_penalty>  (1) 
0.86328456534629683

>  <r_i_glide_einternal>  (1) 
2.3644752653799261

>  <r_i_glide_emodel>  (1) 
-23.933237016475601

>  <r_i_glide_emodel_strain>  (1) 
0.57034348626550013

>  <r_i_glide_energy>  (1) 
-21.149295324300784

>  <r_i_glide_erotb>  (1) 
0.66727664270853937

>  <r_i_glide_esite>  (1) 
0

>  <r_i_glide_evdw>  (1) 
-18.401349062987798

>  <r_i_glide_gscore>  (1) 
-3.1477451004180366

>  <r_i_glide_gscore_strain>  (1) 
0

>  <r_i_glide_hbond>  (1) 
-0.00072672518049626128

>  <r_i_glide_ligand_efficiency>  (1) 
-0.09518585562798916

>  <r_i_glide_ligand_efficiency_ln>  (1) 
-0.54677623310599899

>  <r_i_glide_ligand_efficiency_sa>  (1) 
-0.27456351875762075

>  <r_i_glide_lipo>  (1) 
-0.99741287134150491

>  <r_i_glide_metal>  (1) 
-0

>  <r_i_glide_rewards>  (1) 
-1.4846227542582373

>  <r_lp_Energy>  (1) 
21.078503999999999

>  <s_epik_cmdline>  (1) 
J2VwaWtfcHl0aG9uJywgJy1waHQnLCAnMS4wJywgJy1waCcsICc3LjQnLCAnLXRuJywgJzgnLCAnLW1hJywgJzUwMCcsICctaW1hZScsICc8aW5maWxlLm1hZT4nLCAnLW9tYWUnLCAnPG91dGZpbGUubWFlPic=

>  <s_epik_input>  (1) 
W0NIM11bQ0hdKFtDSDNdKVtDQEhdKFtDSF09TylbQ0gyXVtDQEBIXShbQ0gyXTEpW0NIMl1bQ0BIXTJbQ0BASF0xW0NIMl1bQ0gyXU4oW0NAQEhdMjMpW0NIMl1bQ0gyXVtDQEBIXTNbTkhdW0NIMl1DKD1PKVtPSF0=

>  <s_glide_docking_method>  (1) 
confgen

>  <s_i_glide_gridfile>  (1) 
gpcr_drd2_6luq_protein_autoprepared_prepared

>  <s_lp_Force_Field>  (1) 
S-OPLS

>  <s_lp_Variant>  (1) 
DiffSBDD_26-3

>  <s_m_source_file>  (1) 
generated_generic_title2_ligand_DiffSBDD_2026-06-23_prepared.sdf

>  <GenAI_Model>  (1) 
DiffSBDD

>  <Protein>  (1) 
generic_title2

$$$$
DiffSBDD_21
     RDKit          3D

  0  0  0  0  0  0  0  0  0  0999 V3000
M  V30 BEGIN CTAB
M  V30 COUNTS 75 79 0 0 1
M  V30 BEGIN ATOM
M  V30 1 F 9.813083 5.264450 -15.976042 0
M  V30 2 O 8.573077 1.700301 -16.474390 0
M  V30 3 O 9.369431 7.917548 -11.987265 0
M  V30 4 C 8.768838 5.991025 -9.108563 0 CFG=1
M  V30 5 C 8.911825 6.053330 -10.619162 0 CFG=2
M  V30 6 C 7.748334 3.367680 -15.035835 0 CFG=2
M  V30 7 C 12.981929 3.293264 -18.045113 0
M  V30 8 N 10.901710 2.591968 -19.937994 0
M  V30 9 C 9.165288 4.770939 -9.873332 0
M  V30 10 C 13.107217 3.764508 -19.491812 0 CFG=1
M  V30 11 C 7.866822 3.975593 -16.430376 0 CFG=1
M  V30 12 C 14.530591 3.604715 -20.051248 0 CFG=2
M  V30 13 C 14.695840 2.129788 -20.475878 0 CFG=1
M  V30 14 C 8.568801 5.348624 -16.447072 0
M  V30 15 C 12.179013 3.034795 -20.488738 0 CFG=1
M  V30 16 O 15.109178 1.363178 -19.349028 0
M  V30 17 C 7.853506 5.123264 -12.673350 0
M  V30 18 C 10.160107 7.906243 -9.647561 0 CFG=1
M  V30 19 C 9.868544 4.828262 -19.930986 0
M  V30 20 O 17.094187 4.407834 -20.655840 0 CHG=-1
M  V30 21 C 6.623535 4.991985 -13.594449 0
M  V30 22 C 15.605333 0.080178 -19.694928 0
M  V30 23 S 13.085528 1.611990 -21.147187 0
M  V30 24 C 8.614898 2.879936 -17.160885 0
M  V30 25 C 11.576385 8.481088 -9.511513 0
M  V30 26 C 7.764315 1.859853 -15.313886 0
M  V30 27 C 16.774433 4.426194 -19.447290 0
M  V30 28 N 15.544185 4.044069 -19.088737 0
M  V30 29 C 9.926017 7.116224 -10.950159 0 CFG=2
M  V30 30 O 6.584940 3.746941 -14.299881 0
M  V30 31 O 17.570845 4.790349 -18.555973 0
M  V30 32 C 9.998499 3.442270 -19.317375 0
M  V30 33 C 9.770670 6.948737 -8.507211 0
M  V30 34 C 9.293254 3.098515 -18.265179 0
M  V30 35 C 7.984244 7.625482 -12.150539 0
M  V30 36 C 12.677142 4.101376 -17.017822 0
M  V30 37 C 7.771520 6.213931 -11.588327 0 CFG=2
M  V30 38 H 7.776770 5.987630 -8.669176 0
M  V30 39 H 8.654486 3.571546 -14.477689 0
M  V30 40 H 13.154042 2.242265 -17.862670 0
M  V30 41 H 10.988735 1.697311 -19.476925 0
M  V30 42 H 10.175080 4.411984 -9.737900 0
M  V30 43 H 8.408885 4.002286 -9.985107 0
M  V30 44 H 12.851390 4.824578 -19.498039 0
M  V30 45 H 6.884944 4.063476 -16.891337 0
M  V30 46 H 14.587669 4.226473 -20.947466 0
M  V30 47 H 15.454601 2.065850 -21.258405 0
M  V30 48 H 8.627217 5.766384 -17.451872 0
M  V30 49 H 8.044988 6.067019 -15.824359 0
M  V30 50 H 11.999638 3.689153 -21.341372 0
M  V30 51 H 7.988111 4.153515 -12.196056 0
M  V30 52 H 8.756823 5.302402 -13.256585 0
M  V30 53 H 9.443126 8.728902 -9.629116 0
M  V30 54 H 8.826475 5.149437 -19.925654 0
M  V30 55 H 10.446634 5.552840 -19.355881 0
M  V30 56 H 10.199793 4.861106 -20.968228 0
M  V30 57 H 6.549740 5.829725 -14.284215 0
M  V30 58 H 5.719164 5.029676 -12.986657 0
M  V30 59 H 15.904796 -0.445378 -18.790593 0
M  V30 60 H 14.848257 -0.522511 -20.198145 0
M  V30 61 H 16.481409 0.154708 -20.340337 0
M  V30 62 H 12.325299 7.688947 -9.476965 0
M  V30 63 H 11.819012 9.129515 -10.352747 0
M  V30 64 H 11.669101 9.071052 -8.599705 0
M  V30 65 H 6.761286 1.492124 -15.535473 0
M  V30 66 H 8.157098 1.289195 -14.472033 0
M  V30 67 H 15.293408 4.057250 -18.112710 0
M  V30 68 H 10.842278 6.652858 -11.312192 0
M  V30 69 H 10.627440 6.381661 -8.140932 0
M  V30 70 H 9.328662 7.481313 -7.664369 0
M  V30 71 H 7.687216 7.724051 -13.194530 0
M  V30 72 H 7.407431 8.357034 -11.585507 0
M  V30 73 H 12.499112 5.155638 -17.171040 0
M  V30 74 H 12.602017 3.718109 -16.012235 0
M  V30 75 H 6.818987 6.136729 -11.063126 0
M  V30 END ATOM
M  V30 BEGIN BOND
M  V30 1 1 5 4
M  V30 2 1 9 4
M  V30 3 1 5 9 CFG=3
M  V30 4 1 10 7
M  V30 5 1 11 6
M  V30 6 1 12 10
M  V30 7 1 13 12
M  V30 8 1 14 1
M  V30 9 1 14 11
M  V30 10 1 15 8
M  V30 11 1 15 10
M  V30 12 1 16 13
M  V30 13 1 21 17
M  V30 14 1 22 16
M  V30 15 1 23 13
M  V30 16 1 23 15
M  V30 17 1 24 2
M  V30 18 1 24 11
M  V30 19 1 25 18
M  V30 20 1 26 2
M  V30 21 1 26 6
M  V30 22 1 27 20
M  V30 23 1 28 12
M  V30 24 1 28 27
M  V30 25 1 29 3
M  V30 26 1 29 5
M  V30 27 1 29 18
M  V30 28 1 30 6
M  V30 29 1 30 21
M  V30 30 2 31 27
M  V30 31 1 32 8
M  V30 32 1 32 19
M  V30 33 1 33 4
M  V30 34 1 33 18
M  V30 35 2 34 24
M  V30 36 2 34 32
M  V30 37 1 35 3
M  V30 38 2 36 7
M  V30 39 1 37 5
M  V30 40 1 37 17
M  V30 41 1 37 35
M  V30 42 1 4 38 CFG=3
M  V30 43 1 6 39 CFG=1
M  V30 44 1 40 7
M  V30 45 1 41 8
M  V30 46 1 42 9
M  V30 47 1 43 9
M  V30 48 1 10 44 CFG=1
M  V30 49 1 11 45 CFG=3
M  V30 50 1 12 46 CFG=3
M  V30 51 1 13 47 CFG=3
M  V30 52 1 48 14
M  V30 53 1 49 14
M  V30 54 1 15 50 CFG=3
M  V30 55 1 51 17
M  V30 56 1 52 17
M  V30 57 1 18 53 CFG=3
M  V30 58 1 54 19
M  V30 59 1 55 19
M  V30 60 1 56 19
M  V30 61 1 57 21
M  V30 62 1 58 21
M  V30 63 1 59 22
M  V30 64 1 60 22
M  V30 65 1 61 22
M  V30 66 1 62 25
M  V30 67 1 63 25
M  V30 68 1 64 25
M  V30 69 1 65 26
M  V30 70 1 66 26
M  V30 71 1 67 28
M  V30 72 1 29 68 CFG=3
M  V30 73 1 69 33
M  V30 74 1 70 33
M  V30 75 1 71 35
M  V30 76 1 72 35
M  V30 77 1 73 36
M  V30 78 1 74 36
M  V30 79 1 37 75 CFG=1
M  V30 END BOND
M  V30 END CTAB
M  END
>  <i_epik_Tot_Q>  (1) 
-1

>  <i_epik_Tot_abs_Q>  (1) 
1

>  <i_i_glide_confnum>  (1) 
702

>  <i_i_glide_lignum>  (1) 
38

>  <i_i_glide_posenum>  (1) 
262

>  <i_i_glide_rotatable_bonds>  (1) 
11

>  <i_lp_mmshare_version>  (1) 
72125

>  <i_m_source_file_index>  (1) 
22

>  <i_f3d_flags>  (1) 
0

>  <num_sample>  (1) 
100

>  <b_lp_Chiralities_Consistent>  (1) 
1

>  <r_epik_Charging_Adjusted_Penalty>  (1) 
0.00061310518503501809

>  <r_epik_Ionization_Penalty>  (1) 
0.00061311684036178345

>  <r_epik_Ionization_Penalty_Charging>  (1) 
0.00061310518503501809

>  <r_epik_Ionization_Penalty_Neutral>  (1) 
1.1655326765339942e-08

>  <r_epik_State_Penalty>  (1) 
-0

>  <r_glide_ring_energy>  (1) 
0.25431791977597118

>  <r_i_docking_score>  (1) 
-2.2785904144514526

>  <r_i_glide_ecoul>  (1) 
-2.6399618962522036

>  <r_i_glide_eff_state_penalty>  (1) 
-0

>  <r_i_glide_einternal>  (1) 
7.2996211769961672

>  <r_i_glide_emodel>  (1) 
-28.811613633819405

>  <r_i_glide_emodel_strain>  (1) 
0

>  <r_i_glide_energy>  (1) 
-28.614031197996031

>  <r_i_glide_erotb>  (1) 
0.57165655028623308

>  <r_i_glide_esite>  (1) 
-0.0070440389616377615

>  <r_i_glide_evdw>  (1) 
-25.974069301743828

>  <r_i_glide_gscore>  (1) 
-2.2785904144514526

>  <r_i_glide_gscore_strain>  (1) 
0

>  <r_i_glide_hbond>  (1) 
-0.076845172856116348

>  <r_i_glide_ligand_efficiency>  (1) 
-0.061583524714904123

>  <r_i_glide_ligand_efficiency_ln>  (1) 
-0.49417284315624455

>  <r_i_glide_ligand_efficiency_sa>  (1) 
-0.20520996675638217

>  <r_i_glide_lipo>  (1) 
-1.0264489515682071

>  <r_i_glide_metal>  (1) 
-0

>  <r_i_glide_rewards>  (1) 
-0.045211051826702708

>  <r_lp_Energy>  (1) 
-4.7551119999999996

>  <r_lp_tautomer_probability>  (1) 
1

>  <s_epik_Chemistry_Notes>  (1) 
This compound contains an acetal/aminal-like group ( X-CH(R)-Y where X, Y are N, S, or O) that may be acid/base labile, releasing an aldehyde.

>  <s_epik_cmdline>  (1) 
J2VwaWtfcHl0aG9uJywgJy1waHQnLCAnMS4wJywgJy1waCcsICc3LjQnLCAnLXRuJywgJzgnLCAnLW1hJywgJzUwMCcsICctaW1hZScsICc8aW5maWxlLm1hZT4nLCAnLW9tYWUnLCAnPG91dGZpbGUubWFlPic=

>  <s_epik_input>  (1) 
W09IXUMoPU8pW05IXVtDQEhdKFtDQEBIXTFbQ0hdPVtDSDJdKVtDQEBIXShPW0NIM10pU1tDQEhdMVtOSF1DKFtDSDNdKT1DPUMoT1tDSDJdMilbQ0BIXShbQ0gyXUYpW0NASF0yT1tDSDJdW0NIMl1bQ0BASF0zW0NIMl1PW0NASF00W0NASF0oW0NIM10pW0NIMl1bQ0BASF0oW0NAQF0zNDUpW0NIMl01

>  <s_glide_docking_method>  (1) 
confgen

>  <s_i_glide_gridfile>  (1) 
gpcr_drd2_6luq_protein_autoprepared_prepared

>  <s_lp_Force_Field>  (1) 
S-OPLS

>  <s_lp_Variant>  (1) 
DiffSBDD_21-1

>  <s_m_source_file>  (1) 
generated_generic_title2_ligand_DiffSBDD_2026-06-23_prepared.sdf

>  <GenAI_Model>  (1) 
DiffSBDD

>  <Protein>  (1) 
generic_title2

$$$$
DiffSBDD_32
     RDKit          3D

  0  0  0  0  0  0  0  0  0  0999 V3000
M  V30 BEGIN CTAB
M  V30 COUNTS 75 78 0 0 1
M  V30 BEGIN ATOM
M  V30 1 O 8.397957 1.597989 -18.664359 0
M  V30 2 C 9.037891 5.296057 -11.820068 0 CFG=1
M  V30 3 F 12.723437 4.273180 -19.718247 0
M  V30 4 O 8.175402 -0.409711 -15.407161 0
M  V30 5 O 8.321027 4.951903 -16.018998 0
M  V30 6 C 6.975488 6.339079 -13.089593 0
M  V30 7 C 11.165264 -0.585439 -17.185042 0
M  V30 8 C 8.547767 -1.056228 -18.402322 0 CFG=1
M  V30 9 O 11.340928 1.253357 -18.643377 0
M  V30 10 O 11.309824 3.306854 -17.622220 0
M  V30 11 C 7.542799 0.442509 -16.337269 0 CFG=1
M  V30 12 C 5.993849 5.233521 -15.212906 0
M  V30 13 C 8.508466 6.258151 -12.918610 0
M  V30 14 O 8.471004 2.531506 -17.454262 0
M  V30 15 S 8.003284 -1.568726 -20.052871 0 CHG=-1
M  V30 16 C 6.519791 6.487677 -14.539542 0
M  V30 17 C 14.545148 3.791526 -16.732397 0
M  V30 18 C 8.857576 5.836511 -10.389372 0
M  V30 19 C 9.075712 0.383120 -18.374216 0 CFG=1
M  V30 20 C 15.085380 3.054124 -17.946631 0 CFG=2
M  V30 21 O 15.432235 4.829803 -16.380234 0
M  V30 22 C 6.576334 7.656940 -15.187461 0
M  V30 23 F 16.418626 1.912163 -20.078258 0
M  V30 24 C 8.575521 3.174281 -13.258030 0
M  V30 25 O 15.007984 2.174747 -20.284516 0
M  V30 26 C 14.271779 2.636046 -19.158223 0 CFG=2
M  V30 27 C 7.132321 2.861484 -15.405447 0 CFG=1
M  V30 28 C 8.048458 1.916081 -16.213626 0 CFG=1
M  V30 29 C 12.807560 2.961118 -19.493458 0 CFG=1
M  V30 30 C 9.649450 7.114007 -10.072972 0
M  V30 31 N 14.525519 1.708407 -18.065882 0
M  V30 32 C 7.710414 -0.033712 -17.757639 0 CFG=1
M  V30 33 C 8.451605 3.868217 -11.896727 0
M  V30 34 C 11.735432 2.535572 -18.482547 0
M  V30 35 C 10.446144 0.646503 -17.715273 0 CFG=1
M  V30 36 C 7.250429 2.692504 -13.867817 0
M  V30 37 C 7.053107 4.332347 -15.920433 0 CFG=2
M  V30 38 H 10.110197 5.199348 -11.988976 0
M  V30 39 H 7.833144 -1.297066 -15.491746 0
M  V30 40 H 8.212532 5.794513 -16.431102 0
M  V30 41 H 6.462751 5.483949 -12.655471 0
M  V30 42 H 6.610613 7.195613 -12.521010 0
M  V30 43 H 10.575347 -1.209810 -16.501520 0
M  V30 44 H 11.435623 -1.210945 -17.985239 0
M  V30 45 H 12.133310 -0.305565 -16.785016 0
M  V30 46 H 8.942539 -1.867625 -17.799144 0
M  V30 47 H 6.476630 0.378604 -16.117465 0
M  V30 48 H 5.375656 4.686303 -14.507101 0
M  V30 49 H 5.299358 5.590130 -15.976935 0
M  V30 50 H 8.888848 7.264965 -12.753722 0
M  V30 51 H 8.966999 5.980618 -13.861049 0
M  V30 52 H 14.447220 3.110068 -15.887248 0
M  V30 53 H 13.569074 4.225935 -16.938520 0
M  V30 54 H 7.796540 5.990213 -10.192761 0
M  V30 55 H 9.178422 5.071817 -9.681351 0
M  V30 56 H 16.169335 3.033747 -18.033266 0
M  V30 57 H 15.061131 5.300794 -15.647119 0
M  V30 58 H 6.247067 7.743873 -16.212828 0
M  V30 59 H 6.975357 8.536078 -14.712584 0
M  V30 60 H 9.217609 2.300940 -13.140671 0
M  V30 61 H 9.093321 3.834390 -13.942978 0
M  V30 62 H 6.175376 2.452367 -15.640707 0
M  V30 63 H 8.954556 1.874612 -15.622021 0
M  V30 64 H 12.565757 2.482879 -20.443359 0
M  V30 65 H 9.515825 7.385686 -9.024327 0
M  V30 66 H 10.716043 6.980002 -10.251283 0
M  V30 67 H 9.299701 7.959985 -10.664452 0
M  V30 68 H 13.701506 1.629601 -17.477692 0
M  V30 69 H 6.791518 0.138246 -18.324412 0
M  V30 70 H 7.419145 3.868091 -11.550408 0
M  V30 71 H 8.984336 3.244265 -11.184920 0
M  V30 72 H 10.345720 1.288603 -16.855926 0
M  V30 73 H 6.414041 3.188674 -13.383409 0
M  V30 74 H 7.120832 1.640151 -13.611657 0
M  V30 75 H 6.731919 4.269534 -16.962151 0
M  V30 END ATOM
M  V30 BEGIN BOND
M  V30 1 1 11 4
M  V30 2 1 13 2
M  V30 3 1 13 6
M  V30 4 1 14 1
M  V30 5 1 15 8
M  V30 6 1 16 6
M  V30 7 1 16 12
M  V30 8 1 18 2
M  V30 9 1 19 1 CFG=3
M  V30 10 1 19 8
M  V30 11 1 20 17
M  V30 12 1 21 17
M  V30 13 2 22 16
M  V30 14 1 25 23
M  V30 15 1 26 20
M  V30 16 1 26 25 CFG=3
M  V30 17 1 28 11
M  V30 18 1 28 14
M  V30 19 1 28 27
M  V30 20 1 29 3
M  V30 21 1 29 26
M  V30 22 1 30 18
M  V30 23 1 31 20
M  V30 24 1 31 26
M  V30 25 1 32 8
M  V30 26 1 32 11
M  V30 27 1 32 19
M  V30 28 1 33 2
M  V30 29 1 33 24
M  V30 30 1 34 9
M  V30 31 2 34 10
M  V30 32 1 34 29
M  V30 33 1 35 7
M  V30 34 1 35 9
M  V30 35 1 35 19
M  V30 36 1 36 24
M  V30 37 1 36 27
M  V30 38 1 37 5
M  V30 39 1 37 12
M  V30 40 1 37 27
M  V30 41 1 2 38 CFG=3
M  V30 42 1 39 4
M  V30 43 1 40 5
M  V30 44 1 41 6
M  V30 45 1 42 6
M  V30 46 1 43 7
M  V30 47 1 44 7
M  V30 48 1 45 7
M  V30 49 1 8 46 CFG=1
M  V30 50 1 11 47 CFG=1
M  V30 51 1 48 12
M  V30 52 1 49 12
M  V30 53 1 50 13
M  V30 54 1 51 13
M  V30 55 1 52 17
M  V30 56 1 53 17
M  V30 57 1 54 18
M  V30 58 1 55 18
M  V30 59 1 20 56 CFG=3
M  V30 60 1 57 21
M  V30 61 1 58 22
M  V30 62 1 59 22
M  V30 63 1 60 24
M  V30 64 1 61 24
M  V30 65 1 27 62 CFG=3
M  V30 66 1 28 63 CFG=1
M  V30 67 1 29 64 CFG=3
M  V30 68 1 65 30
M  V30 69 1 66 30
M  V30 70 1 67 30
M  V30 71 1 68 31
M  V30 72 1 32 69 CFG=3
M  V30 73 1 70 33
M  V30 74 1 71 33
M  V30 75 1 35 72 CFG=1
M  V30 76 1 73 36
M  V30 77 1 74 36
M  V30 78 1 37 75 CFG=3
M  V30 END BOND
M  V30 END CTAB
M  END
>  <i_epik_Tot_Q>  (1) 
-1

>  <i_epik_Tot_abs_Q>  (1) 
1

>  <i_i_glide_confnum>  (1) 
1

>  <i_i_glide_lignum>  (1) 
55

>  <i_i_glide_posenum>  (1) 
350

>  <i_i_glide_rotatable_bonds>  (1) 
12

>  <i_lp_mmshare_version>  (1) 
72125

>  <i_m_source_file_index>  (1) 
33

>  <i_f3d_flags>  (1) 
0

>  <num_sample>  (1) 
100

>  <b_lp_Chiralities_Consistent>  (1) 
1

>  <r_epik_Charging_Adjusted_Penalty>  (1) 
2.2826120202495259

>  <r_epik_Ionization_Penalty>  (1) 
1.1413067509942614

>  <r_epik_Ionization_Penalty_Charging>  (1) 
1.1413060101247627

>  <r_epik_Ionization_Penalty_Neutral>  (1) 
7.4086949864391441e-07

>  <r_epik_State_Penalty>  (1) 
1.141306010124763

>  <r_glide_ring_energy>  (1) 
0

>  <r_i_docking_score>  (1) 
-2.2762676794276206

>  <r_i_glide_ecoul>  (1) 
-3.7568560872920616

>  <r_i_glide_eff_state_penalty>  (1) 
1.141306010124763

>  <r_i_glide_einternal>  (1) 
3.0969191928494908

>  <r_i_glide_emodel>  (1) 
-23.603561070084236

>  <r_i_glide_emodel_strain>  (1) 
1.4210867393633464

>  <r_i_glide_energy>  (1) 
-23.19112144962449

>  <r_i_glide_erotb>  (1) 
0.40941976569591371

>  <r_i_glide_esite>  (1) 
-3.1341113590578143e-05

>  <r_i_glide_evdw>  (1) 
-19.434265362332429

>  <r_i_glide_gscore>  (1) 
-3.4175736895523836

>  <r_i_glide_gscore_strain>  (1) 
0

>  <r_i_glide_hbond>  (1) 
-0.32000000000000001

>  <r_i_glide_ligand_efficiency>  (1) 
-0.061520748092638397

>  <r_i_glide_ligand_efficiency_ln>  (1) 
-0.49366909638221018

>  <r_i_glide_ligand_efficiency_sa>  (1) 
-0.2050007811238958

>  <r_i_glide_lipo>  (1) 
-1.7225272216474137

>  <r_i_glide_metal>  (1) 
-0

>  <r_i_glide_rewards>  (1) 
-0.24919321127686225

>  <r_lp_Energy>  (1) 
53.843353

>  <s_epik_Chemistry_Notes>  (1) 
This compound has an ester and may undergo hydrolysis at high or low pH.

>  <s_epik_cmdline>  (1) 
J2VwaWtfcHl0aG9uJywgJy1waHQnLCAnMS4wJywgJy1waCcsICc3LjQnLCAnLXRuJywgJzgnLCAnLW1hJywgJzUwMCcsICctaW1hZScsICc8aW5maWxlLm1hZT4nLCAnLW9tYWUnLCAnPG91dGZpbGUubWFlPic=

>  <s_epik_input>  (1) 
W0NIM11bQ0gyXVtDQEBIXTFbQ0gyXVtDSDJdQyg9W0NIMl0pW0NIMl1bQ0BASF0oW09IXSlbQ0BIXShbQ0gyXVtDSDJdW0NIMl0xKVtDQEhdKE9PMilbQ0BIXShbT0hdKVtDQEhdKFtDQEhdM1tTSF0pW0NAXTIzW0NAQEhdKFtDSDNdKU9DKD1PKVtDQEBIXShGKUM0KE9GKVtDQEhdKFtOSF00KVtDSDJdW09IXQ==

>  <s_glide_docking_method>  (1) 
confgen

>  <s_i_glide_gridfile>  (1) 
gpcr_drd2_6luq_protein_autoprepared_prepared

>  <s_lp_Force_Field>  (1) 
S-OPLS

>  <s_lp_Variant>  (1) 
DiffSBDD_32-2

>  <s_m_source_file>  (1) 
generated_generic_title2_ligand_DiffSBDD_2026-06-23_prepared.sdf

>  <GenAI_Model>  (1) 
DiffSBDD

>  <Protein>  (1) 
generic_title2

$$$$
DiffSBDD_53
     RDKit          3D

  0  0  0  0  0  0  0  0  0  0999 V3000
M  V30 BEGIN CTAB
M  V30 COUNTS 73 75 0 0 1
M  V30 BEGIN ATOM
M  V30 1 C 9.630882 7.757001 -21.971200 0
M  V30 2 C 12.986755 7.371262 -17.553023 0
M  V30 3 O 10.805742 8.021020 -22.224457 0
M  V30 4 S 12.702077 6.304909 -16.110043 0
M  V30 5 C 15.096649 9.994581 -18.089611 0
M  V30 6 C 11.556381 4.494338 -17.774810 0
M  V30 7 C 10.832323 3.168906 -21.015608 0
M  V30 8 C 12.417166 4.705302 -16.807050 0
M  V30 9 C 17.025588 8.539169 -18.859638 0
M  V30 10 C 14.625106 7.930770 -19.487523 0
M  V30 11 C 6.127107 8.579287 -21.285359 0
M  V30 12 C 10.281544 -0.004725 -18.144683 0
M  V30 13 C 7.285521 7.802695 -21.930621 0 CFG=1
M  V30 14 C 8.510114 8.700231 -22.321018 0
M  V30 15 N 9.218909 6.656413 -21.370186 0
M  V30 16 C 18.109374 9.597230 -18.742566 0
M  V30 17 C 9.936286 4.270286 -21.611981 0
M  V30 18 C 10.622597 2.966556 -19.496904 0 CFG=1
M  V30 19 C 9.888859 5.467693 -19.334981 0 CFG=2
M  V30 20 C 9.493847 0.638917 -19.292837 0
M  V30 21 C 15.621631 9.096955 -19.223278 0
M  V30 22 C 7.595609 6.566428 -19.594604 0
M  V30 23 C 14.282765 7.000139 -18.298830 0
M  V30 24 C 10.110611 5.605712 -20.859076 0 CFG=2
M  V30 25 C 7.801978 6.552431 -21.121212 0 CFG=1
M  V30 26 C 15.700842 9.940232 -20.515361 0
M  V30 27 C 18.686672 9.953842 -17.585590 0
M  V30 28 C 10.716685 4.311897 -18.770984 0
M  V30 29 C 9.342859 2.165860 -19.158150 0
M  V30 30 C 8.389110 5.415450 -18.947537 0
M  V30 31 H 13.017195 8.390246 -17.183250 0
M  V30 32 H 12.136618 7.326033 -18.228696 0
M  V30 33 H 14.175394 10.485599 -18.377584 0
M  V30 34 H 15.775424 10.790224 -17.813225 0
M  V30 35 H 14.922289 9.424767 -17.185021 0
M  V30 36 H 10.676482 2.232604 -21.551241 0
M  V30 37 H 11.874428 3.440277 -21.189775 0
M  V30 38 H 13.002447 3.901547 -16.385379 0
M  V30 39 H 17.350237 7.819684 -19.612147 0
M  V30 40 H 16.987463 7.993566 -17.917627 0
M  V30 41 H 15.039148 7.312670 -20.285609 0
M  V30 42 H 13.693747 8.325632 -19.897395 0
M  V30 43 H 6.448869 9.097325 -20.383797 0
M  V30 44 H 5.303574 7.915776 -21.019980 0
M  V30 45 H 5.737094 9.331869 -21.970656 0
M  V30 46 H 10.269842 -1.091138 -18.226908 0
M  V30 47 H 9.837439 0.252450 -17.184903 0
M  V30 48 H 11.322634 0.317272 -18.131584 0
M  V30 49 H 6.896374 7.406607 -22.870562 0
M  V30 50 H 8.575334 9.590239 -21.697214 0
M  V30 51 H 8.519957 8.984308 -23.373984 0
M  V30 52 H 18.416462 10.077766 -19.659821 0
M  V30 53 H 10.178505 4.407926 -22.666353 0
M  V30 54 H 8.898255 3.942470 -21.580674 0
M  V30 55 H 11.464745 2.367536 -19.147142 0
M  V30 56 H 10.258269 6.390349 -18.886434 0
M  V30 57 H 9.951368 0.381870 -20.248219 0
M  V30 58 H 8.498298 0.193901 -19.308430 0
M  V30 59 H 7.937305 7.515625 -19.184924 0
M  V30 60 H 6.537566 6.477667 -19.346963 0
M  V30 61 H 14.162732 5.990098 -18.691181 0
M  V30 62 H 15.108114 6.936405 -17.592448 0
M  V30 63 H 11.152437 5.903368 -20.995465 0
M  V30 64 H 7.393282 5.636574 -21.549005 0
M  V30 65 H 16.130093 9.369756 -21.339326 0
M  V30 66 H 16.301796 10.840015 -20.384923 0
M  V30 67 H 14.711797 10.271737 -20.833271 0
M  V30 68 H 18.398836 9.490889 -16.654304 0
M  V30 69 H 19.453443 10.714105 -17.557365 0
M  V30 70 H 9.014759 2.396996 -18.143615 0
M  V30 71 H 8.530427 2.474478 -19.813485 0
M  V30 72 H 7.936951 4.480864 -19.266047 0
M  V30 73 H 8.283348 5.453344 -17.862789 0
M  V30 END ATOM
M  V30 BEGIN BOND
M  V30 1 2 3 1
M  V30 2 1 4 2
M  V30 3 1 8 4
M  V30 4 2 8 6
M  V30 5 1 13 11
M  V30 6 1 14 1
M  V30 7 1 14 13
M  V30 8 1 15 1
M  V30 9 1 16 9
M  V30 10 1 17 7
M  V30 11 1 18 7
M  V30 12 1 20 12
M  V30 13 1 21 5
M  V30 14 1 21 9
M  V30 15 1 21 10
M  V30 16 1 23 2
M  V30 17 1 23 10
M  V30 18 1 24 15
M  V30 19 1 24 17
M  V30 20 1 24 19
M  V30 21 1 25 13
M  V30 22 1 25 15
M  V30 23 1 25 22
M  V30 24 1 26 21
M  V30 25 2 27 16
M  V30 26 2 28 6
M  V30 27 1 28 18
M  V30 28 1 28 19
M  V30 29 1 29 18
M  V30 30 1 29 20
M  V30 31 1 30 19
M  V30 32 1 30 22
M  V30 33 1 31 2
M  V30 34 1 32 2
M  V30 35 1 33 5
M  V30 36 1 34 5
M  V30 37 1 35 5
M  V30 38 1 36 7
M  V30 39 1 37 7
M  V30 40 1 38 8
M  V30 41 1 39 9
M  V30 42 1 40 9
M  V30 43 1 41 10
M  V30 44 1 42 10
M  V30 45 1 43 11
M  V30 46 1 44 11
M  V30 47 1 45 11
M  V30 48 1 46 12
M  V30 49 1 47 12
M  V30 50 1 48 12
M  V30 51 1 13 49 CFG=3
M  V30 52 1 50 14
M  V30 53 1 51 14
M  V30 54 1 52 16
M  V30 55 1 53 17
M  V30 56 1 54 17
M  V30 57 1 18 55 CFG=1
M  V30 58 1 19 56 CFG=1
M  V30 59 1 57 20
M  V30 60 1 58 20
M  V30 61 1 59 22
M  V30 62 1 60 22
M  V30 63 1 61 23
M  V30 64 1 62 23
M  V30 65 1 24 63 CFG=1
M  V30 66 1 25 64 CFG=3
M  V30 67 1 65 26
M  V30 68 1 66 26
M  V30 69 1 67 26
M  V30 70 1 68 27
M  V30 71 1 69 27
M  V30 72 1 70 29
M  V30 73 1 71 29
M  V30 74 1 72 30
M  V30 75 1 73 30
M  V30 END BOND
M  V30 END CTAB
M  END
>  <i_epik_Tot_Q>  (1) 
0

>  <i_epik_Tot_abs_Q>  (1) 
0

>  <i_i_glide_confnum>  (1) 
325

>  <i_i_glide_lignum>  (1) 
86

>  <i_i_glide_posenum>  (1) 
202

>  <i_i_glide_rotatable_bonds>  (1) 
9

>  <i_lp_mmshare_version>  (1) 
72125

>  <i_m_source_file_index>  (1) 
54

>  <i_f3d_flags>  (1) 
0

>  <num_sample>  (1) 
100

>  <b_lp_Chiralities_Consistent>  (1) 
1

>  <r_epik_Charging_Adjusted_Penalty>  (1) 
0

>  <r_epik_Ionization_Penalty>  (1) 
8.5702257649792976e-08

>  <r_epik_Ionization_Penalty_Charging>  (1) 
0

>  <r_epik_Ionization_Penalty_Neutral>  (1) 
8.5702257649792976e-08

>  <r_epik_State_Penalty>  (1) 
-0

>  <r_glide_ring_energy>  (1) 
0

>  <r_i_docking_score>  (1) 
-2.2563186830137907

>  <r_i_glide_ecoul>  (1) 
0.050292266040859422

>  <r_i_glide_eff_state_penalty>  (1) 
-0

>  <r_i_glide_einternal>  (1) 
7.379092341615813

>  <r_i_glide_emodel>  (1) 
-23.396196522948451

>  <r_i_glide_emodel_strain>  (1) 
0

>  <r_i_glide_energy>  (1) 
-23.853408142952709

>  <r_i_glide_erotb>  (1) 
0.86106388295804615

>  <r_i_glide_esite>  (1) 
0

>  <r_i_glide_evdw>  (1) 
-23.903700408993569

>  <r_i_glide_gscore>  (1) 
-2.2563186830137907

>  <r_i_glide_gscore_strain>  (1) 
0

>  <r_i_glide_hbond>  (1) 
0

>  <r_i_glide_ligand_efficiency>  (1) 
-0.075210622767126353

>  <r_i_glide_ligand_efficiency_ln>  (1) 
-0.51266018934185353

>  <r_i_glide_ligand_efficiency_sa>  (1) 
-0.23369689185504841

>  <r_i_glide_lipo>  (1) 
-1.404529089804387

>  <r_i_glide_metal>  (1) 
-0

>  <r_i_glide_rewards>  (1) 
-0.52521229562390004

>  <r_lp_Energy>  (1) 
0.63202399999999992

>  <r_lp_tautomer_probability>  (1) 
1

>  <s_epik_cmdline>  (1) 
J2VwaWtfcHl0aG9uJywgJy1waHQnLCAnMS4wJywgJy1waCcsICc3LjQnLCAnLXRuJywgJzgnLCAnLW1hJywgJzUwMCcsICctaW1hZScsICc8aW5maWxlLm1hZT4nLCAnLW9tYWUnLCAnPG91dGZpbGUubWFlPic=

>  <s_epik_input>  (1) 
Tz1DMVtDSDJdW0NASF0oW0NIM10pW0NAQEhdMltDSDJdW0NIMl1bQ0BIXShbQ0BASF0zTjEyKUMoW0NASF0oW0NIMl1bQ0gyXTMpW0NIMl1bQ0gyXVtDSDNdKT1DPVtDSF1TW0NIMl1bQ0gyXVtDSDJdQyhbQ0gzXSkoW0NIM10pW0NIMl1bQ0hdPVtDSDJd

>  <s_glide_docking_method>  (1) 
confgen

>  <s_i_glide_gridfile>  (1) 
gpcr_drd2_6luq_protein_autoprepared_prepared

>  <s_lp_Force_Field>  (1) 
S-OPLS

>  <s_lp_Variant>  (1) 
DiffSBDD_53-1

>  <s_m_source_file>  (1) 
generated_generic_title2_ligand_DiffSBDD_2026-06-23_prepared.sdf

>  <GenAI_Model>  (1) 
DiffSBDD

>  <Protein>  (1) 
generic_title2

$$$$
DiffSBDD_32
     RDKit          3D

  0  0  0  0  0  0  0  0  0  0999 V3000
M  V30 BEGIN CTAB
M  V30 COUNTS 75 78 0 0 1
M  V30 BEGIN ATOM
M  V30 1 O 12.006085 2.228556 -20.252087 0
M  V30 2 C 5.843789 -2.611664 -18.984244 0 CFG=1
M  V30 3 F 14.413911 5.706566 -19.008019 0
M  V30 4 O 11.249270 -0.409710 -17.585208 0
M  V30 5 O 8.575432 -0.171459 -16.667649 0
M  V30 6 C 5.180222 -0.611450 -17.443126 0
M  V30 7 C 14.223457 0.861465 -17.362001 0
M  V30 8 C 13.376689 -0.086953 -20.015165 0 CFG=1
M  V30 9 O 13.783547 3.092583 -18.249443 0
M  V30 10 O 15.591718 2.637274 -19.591481 0
M  V30 11 C 10.828582 -0.041772 -18.878380 0 CFG=1
M  V30 12 C 6.681059 1.404047 -16.817455 0
M  V30 13 C 5.873804 -1.983099 -17.571511 0
M  V30 14 O 10.459635 2.043536 -20.083084 0
M  V30 15 S 14.006448 -0.079090 -21.716547 0 CHG=-1
M  V30 16 C 5.796185 0.245310 -16.353137 0
M  V30 17 C 13.597508 5.954513 -16.109547 0
M  V30 18 C 4.430437 -3.104155 -19.337977 0
M  V30 19 C 12.796966 1.243885 -19.550775 0 CFG=2
M  V30 20 C 15.090947 5.686526 -16.057364 0 CFG=2
M  V30 21 O 13.375386 7.339274 -16.254296 0
M  V30 22 C 5.565869 0.005401 -15.054878 0
M  V30 23 F 17.857761 5.524541 -15.827601 0
M  V30 24 C 7.751767 -1.012021 -19.799415 0
M  V30 25 O 17.313180 5.190844 -17.128877 0
M  V30 26 C 15.895710 5.162390 -17.235183 0 CFG=2
M  V30 27 C 8.556685 1.290435 -18.682283 0 CFG=1
M  V30 28 C 10.101896 1.327304 -18.886104 0 CFG=1
M  V30 29 C 15.373575 4.854003 -18.648638 0 CFG=1
M  V30 30 C 3.942078 -4.313210 -18.525517 0
M  V30 31 N 15.409123 4.281226 -16.173146 0
M  V30 32 C 11.907654 0.037120 -19.919740 0 CFG=1
M  V30 33 C 6.393764 -1.685288 -20.103408 0
M  V30 34 C 14.934517 3.406630 -18.892728 0
M  V30 35 C 13.261988 1.767380 -18.170891 0 CFG=1
M  V30 36 C 7.718033 0.537655 -19.758759 0
M  V30 37 C 8.151919 1.069252 -17.192519 0 CFG=2
M  V30 38 H 6.494610 -3.487058 -18.955601 0
M  V30 39 H 10.461870 -0.473421 -17.053360 0
M  V30 40 H 7.872670 -0.796032 -16.780845 0
M  V30 41 H 5.167240 -0.051841 -18.373044 0
M  V30 42 H 4.128611 -0.774429 -17.201167 0
M  V30 43 H 13.772754 -0.102265 -17.134554 0
M  V30 44 H 15.155864 0.666067 -17.892079 0
M  V30 45 H 14.475470 1.322722 -16.407180 0
M  V30 46 H 13.875198 -0.795735 -19.359104 0
M  V30 47 H 10.182842 -0.836232 -19.216731 0
M  V30 48 H 6.180987 1.945170 -17.621752 0
M  V30 49 H 6.711502 2.118223 -15.993111 0
M  V30 50 H 5.429710 -2.663022 -16.846050 0
M  V30 51 H 6.904058 -1.930019 -17.238723 0
M  V30 52 H 13.136720 5.612252 -15.184860 0
M  V30 53 H 13.121869 5.416794 -16.929246 0
M  V30 54 H 3.745386 -2.274657 -19.185169 0
M  V30 55 H 4.384477 -3.362921 -20.396450 0
M  V30 56 H 15.613262 6.106738 -15.202363 0
M  V30 57 H 12.451992 7.488815 -16.392774 0
M  V30 58 H 6.005463 0.622105 -14.285686 0
M  V30 59 H 4.933799 -0.809591 -14.747960 0
M  V30 60 H 8.456627 -1.312810 -20.575720 0
M  V30 61 H 8.162604 -1.424278 -18.884799 0
M  V30 62 H 8.275692 2.331382 -18.853255 0
M  V30 63 H 10.481157 1.951304 -18.081942 0
M  V30 64 H 16.183327 5.061354 -19.347347 0
M  V30 65 H 2.966660 -4.642686 -18.881878 0
M  V30 66 H 4.626131 -5.156982 -18.611331 0
M  V30 67 H 3.827298 -4.078698 -17.467534 0
M  V30 68 H 14.583436 3.782867 -16.496765 0
M  V30 69 H 11.464031 -0.007155 -20.915663 0
M  V30 70 H 5.646316 -0.940427 -20.377929 0
M  V30 71 H 6.510854 -2.284980 -21.007524 0
M  V30 72 H 12.390839 1.883347 -17.537098 0
M  V30 73 H 6.689596 0.876123 -19.655999 0
M  V30 74 H 8.015221 0.903187 -20.742802 0
M  V30 75 H 8.748339 1.790628 -16.632644 0
M  V30 END ATOM
M  V30 BEGIN BOND
M  V30 1 1 11 4
M  V30 2 1 13 2
M  V30 3 1 13 6
M  V30 4 1 14 1
M  V30 5 1 15 8
M  V30 6 1 16 6
M  V30 7 1 16 12
M  V30 8 1 18 2
M  V30 9 1 19 1 CFG=3
M  V30 10 1 19 8
M  V30 11 1 20 17
M  V30 12 1 21 17
M  V30 13 2 22 16
M  V30 14 1 25 23
M  V30 15 1 26 20
M  V30 16 1 26 25 CFG=3
M  V30 17 1 28 11
M  V30 18 1 28 14
M  V30 19 1 28 27
M  V30 20 1 29 3
M  V30 21 1 29 26
M  V30 22 1 30 18
M  V30 23 1 31 20
M  V30 24 1 31 26
M  V30 25 1 32 8
M  V30 26 1 32 11
M  V30 27 1 32 19
M  V30 28 1 33 2
M  V30 29 1 33 24
M  V30 30 1 34 9
M  V30 31 2 34 10
M  V30 32 1 34 29
M  V30 33 1 35 7
M  V30 34 1 35 9
M  V30 35 1 35 19
M  V30 36 1 36 24
M  V30 37 1 36 27
M  V30 38 1 37 5
M  V30 39 1 37 12
M  V30 40 1 37 27
M  V30 41 1 2 38 CFG=1
M  V30 42 1 39 4
M  V30 43 1 40 5
M  V30 44 1 41 6
M  V30 45 1 42 6
M  V30 46 1 43 7
M  V30 47 1 44 7
M  V30 48 1 45 7
M  V30 49 1 8 46 CFG=1
M  V30 50 1 11 47 CFG=3
M  V30 51 1 48 12
M  V30 52 1 49 12
M  V30 53 1 50 13
M  V30 54 1 51 13
M  V30 55 1 52 17
M  V30 56 1 53 17
M  V30 57 1 54 18
M  V30 58 1 55 18
M  V30 59 1 20 56 CFG=1
M  V30 60 1 57 21
M  V30 61 1 58 22
M  V30 62 1 59 22
M  V30 63 1 60 24
M  V30 64 1 61 24
M  V30 65 1 27 62 CFG=3
M  V30 66 1 28 63 CFG=1
M  V30 67 1 29 64 CFG=3
M  V30 68 1 65 30
M  V30 69 1 66 30
M  V30 70 1 67 30
M  V30 71 1 68 31
M  V30 72 1 32 69 CFG=3
M  V30 73 1 70 33
M  V30 74 1 71 33
M  V30 75 1 35 72 CFG=1
M  V30 76 1 73 36
M  V30 77 1 74 36
M  V30 78 1 37 75 CFG=1
M  V30 END BOND
M  V30 END CTAB
M  END
>  <i_epik_Tot_Q>  (1) 
-1

>  <i_epik_Tot_abs_Q>  (1) 
1

>  <i_i_glide_confnum>  (1) 
165

>  <i_i_glide_lignum>  (1) 
55

>  <i_i_glide_posenum>  (1) 
304

>  <i_i_glide_rotatable_bonds>  (1) 
12

>  <i_lp_mmshare_version>  (1) 
72125

>  <i_m_source_file_index>  (1) 
33

>  <i_f3d_flags>  (1) 
0

>  <num_sample>  (1) 
100

>  <b_lp_Chiralities_Consistent>  (1) 
1

>  <r_epik_Charging_Adjusted_Penalty>  (1) 
2.2826120202495259

>  <r_epik_Ionization_Penalty>  (1) 
1.1413067509942614

>  <r_epik_Ionization_Penalty_Charging>  (1) 
1.1413060101247627

>  <r_epik_Ionization_Penalty_Neutral>  (1) 
7.4086949864391441e-07

>  <r_epik_State_Penalty>  (1) 
1.141306010124763

>  <r_glide_ring_energy>  (1) 
0

>  <r_i_docking_score>  (1) 
-2.219350817883885

>  <r_i_glide_ecoul>  (1) 
-2.552710807555973

>  <r_i_glide_eff_state_penalty>  (1) 
1.141306010124763

>  <r_i_glide_einternal>  (1) 
4.2863441299013765

>  <r_i_glide_emodel>  (1) 
-33.196299884917877

>  <r_i_glide_emodel_strain>  (1) 
0.52813821454383003

>  <r_i_glide_energy>  (1) 
-32.541948385461176

>  <r_i_glide_erotb>  (1) 
0.40941976569591371

>  <r_i_glide_esite>  (1) 
-0.0080402557169783149

>  <r_i_glide_evdw>  (1) 
-29.9892375779052

>  <r_i_glide_gscore>  (1) 
-3.360656828008648

>  <r_i_glide_gscore_strain>  (1) 
0

>  <r_i_glide_hbond>  (1) 
-0.25994269643345624

>  <r_i_glide_ligand_efficiency>  (1) 
-0.059982454537402294

>  <r_i_glide_ligand_efficiency_ln>  (1) 
-0.48132516343392318

>  <r_i_glide_ligand_efficiency_sa>  (1) 
-0.19987484572489192

>  <r_i_glide_lipo>  (1) 
-1.1711927794658781

>  <r_i_glide_metal>  (1) 
-0

>  <r_i_glide_rewards>  (1) 
-0.44853236205959268

>  <r_lp_Energy>  (1) 
53.843353

>  <s_epik_Chemistry_Notes>  (1) 
This compound has an ester and may undergo hydrolysis at high or low pH.

>  <s_epik_cmdline>  (1) 
J2VwaWtfcHl0aG9uJywgJy1waHQnLCAnMS4wJywgJy1waCcsICc3LjQnLCAnLXRuJywgJzgnLCAnLW1hJywgJzUwMCcsICctaW1hZScsICc8aW5maWxlLm1hZT4nLCAnLW9tYWUnLCAnPG91dGZpbGUubWFlPic=

>  <s_epik_input>  (1) 
W0NIM11bQ0gyXVtDQEBIXTFbQ0gyXVtDSDJdQyg9W0NIMl0pW0NIMl1bQ0BASF0oW09IXSlbQ0BIXShbQ0gyXVtDSDJdW0NIMl0xKVtDQEhdKE9PMilbQ0BIXShbT0hdKVtDQEhdKFtDQEhdM1tTSF0pW0NAXTIzW0NAQEhdKFtDSDNdKU9DKD1PKVtDQEBIXShGKUM0KE9GKVtDQEhdKFtOSF00KVtDSDJdW09IXQ==

>  <s_glide_docking_method>  (1) 
confgen

>  <s_i_glide_gridfile>  (1) 
gpcr_drd2_6luq_protein_autoprepared_prepared

>  <s_lp_Force_Field>  (1) 
S-OPLS

>  <s_lp_Variant>  (1) 
DiffSBDD_32-2

>  <s_m_source_file>  (1) 
generated_generic_title2_ligand_DiffSBDD_2026-06-23_prepared.sdf

>  <GenAI_Model>  (1) 
DiffSBDD

>  <Protein>  (1) 
generic_title2

$$$$
DiffSBDD_60
     RDKit          3D

  0  0  0  0  0  0  0  0  0  0999 V3000
M  V30 BEGIN CTAB
M  V30 COUNTS 71 74 0 0 1
M  V30 BEGIN ATOM
M  V30 1 C 5.979063 4.500458 -14.076410 0
M  V30 2 C 6.988219 5.321817 -18.540852 0
M  V30 3 C 10.857334 8.174794 -6.361467 0 CFG=1
M  V30 4 C 9.425164 7.553583 -10.736555 0
M  V30 5 C 8.111973 4.507880 -18.826235 0
M  V30 6 O 11.776519 7.190209 -10.115637 0
M  V30 7 C 6.593066 5.566325 -17.194947 0
M  V30 8 C 8.493445 4.273230 -20.161489 0
M  V30 9 N 7.338166 4.987096 -16.124913 0
M  V30 10 C 12.395895 9.172968 -4.511332 0
M  V30 11 C 5.131322 6.703940 -19.343655 0
M  V30 12 C 6.087562 7.591473 -11.697546 0
M  V30 13 S 10.975423 6.619431 -5.423548 0
M  V30 14 C 9.535598 8.788237 -5.990080 0
M  V30 15 C 5.447937 6.382303 -16.946614 0
M  V30 16 O 13.719670 9.590232 -4.449894 0
M  V30 17 C 6.252149 5.895479 -19.610086 0
M  V30 18 C 10.659603 8.773074 -8.926483 0
M  V30 19 C 12.119359 7.990226 -11.141482 0 CFG=2
M  V30 20 C 9.424694 6.763534 -12.068279 0
M  V30 21 O 11.775724 10.434363 -6.384987 0
M  V30 22 C 13.375384 8.729591 -10.785013 0
M  V30 23 O 8.861962 4.356545 -13.529628 0
M  V30 24 C 6.642433 5.655958 -20.943815 0
M  V30 25 C 7.250936 7.531397 -12.673950 0 CFG=2
M  V30 26 C 10.786535 8.144988 -10.300735 0 CFG=2
M  V30 27 C 7.030023 5.402939 -14.750913 0 CFG=2
M  V30 28 O 14.061992 8.390222 -9.816906 0
M  V30 29 C 12.047350 9.102681 -6.011728 0 CFG=2
M  V30 30 C 7.760381 4.845719 -21.217723 0
M  V30 31 C 4.730713 6.943864 -18.019033 0
M  V30 32 O 5.893787 7.190122 -13.033554 0
M  V30 33 C 8.290731 5.602474 -13.873973 0 CFG=1
M  V30 34 C 10.861445 7.705909 -7.805569 0
M  V30 35 N 8.102362 6.334077 -12.592542 0
M  V30 36 H 5.990665 4.612021 -12.993003 0
M  V30 37 H 4.975433 4.776279 -14.385141 0
M  V30 38 H 6.165901 3.448262 -14.296509 0
M  V30 39 H 9.042966 6.901052 -9.949138 0
M  V30 40 H 8.731135 8.391477 -10.793084 0
M  V30 41 H 8.681328 4.063974 -18.025667 0
M  V30 42 H 9.349712 3.650971 -20.375577 0
M  V30 43 H 8.190400 4.477006 -16.308685 0
M  V30 44 H 12.392585 8.221876 -3.985156 0
M  V30 45 H 11.743275 9.844039 -3.949134 0
M  V30 46 H 4.574686 7.139887 -20.159935 0
M  V30 47 H 5.885003 6.772023 -11.012467 0
M  V30 48 H 5.643613 8.552327 -11.455237 0
M  V30 49 H 9.910746 6.019379 -5.968925 0
M  V30 50 H 9.000999 9.190195 -6.841804 0
M  V30 51 H 8.857772 8.049893 -5.585055 0
M  V30 52 H 9.775410 9.580318 -5.284641 0
M  V30 53 H 5.112831 6.574549 -15.942419 0
M  V30 54 H 14.220301 9.173501 -5.134862 0
M  V30 55 H 9.661950 9.190689 -8.854076 0
M  V30 56 H 11.380400 9.583191 -8.840289 0
M  V30 57 H 12.093639 7.483837 -12.103127 0
M  V30 58 H 9.915383 7.409864 -12.785012 0
M  V30 59 H 10.069605 5.891184 -11.949720 0
M  V30 60 H 11.099834 10.780883 -5.823473 0
M  V30 61 H 13.636020 9.565043 -11.436539 0
M  V30 62 H 9.783543 4.380623 -13.743574 0
M  V30 63 H 6.081942 6.092917 -21.758012 0
M  V30 64 H 7.609473 8.436338 -13.151944 0
M  V30 65 H 6.698241 6.419619 -14.873112 0
M  V30 66 H 12.905931 8.790435 -6.605664 0
M  V30 67 H 8.056998 4.664452 -22.239669 0
M  V30 68 H 3.865120 7.560291 -17.821707 0
M  V30 69 H 8.975540 6.117879 -14.520754 0
M  V30 70 H 11.817616 7.190065 -7.902992 0
M  V30 71 H 10.095223 6.940252 -7.931981 0
M  V30 END ATOM
M  V30 BEGIN BOND
M  V30 1 2 5 2
M  V30 2 1 7 2
M  V30 3 1 8 5
M  V30 4 1 9 7
M  V30 5 1 3 13 CFG=1
M  V30 6 1 14 3
M  V30 7 2 15 7
M  V30 8 1 16 10
M  V30 9 1 17 2
M  V30 10 1 17 11
M  V30 11 1 19 6
M  V30 12 1 20 4
M  V30 13 1 22 19
M  V30 14 2 24 17
M  V30 15 1 25 12
M  V30 16 1 26 4 CFG=3
M  V30 17 1 26 6
M  V30 18 1 26 18
M  V30 19 1 26 19
M  V30 20 1 27 1
M  V30 21 1 27 9
M  V30 22 2 28 22
M  V30 23 1 29 3
M  V30 24 1 29 10
M  V30 25 1 29 21
M  V30 26 2 30 8
M  V30 27 1 30 24
M  V30 28 2 31 11
M  V30 29 1 31 15
M  V30 30 1 32 12
M  V30 31 1 32 25
M  V30 32 1 33 23
M  V30 33 1 33 27
M  V30 34 1 34 3
M  V30 35 1 34 18
M  V30 36 1 35 20
M  V30 37 1 35 25
M  V30 38 1 35 33
M  V30 39 1 36 1
M  V30 40 1 37 1
M  V30 41 1 38 1
M  V30 42 1 39 4
M  V30 43 1 40 4
M  V30 44 1 41 5
M  V30 45 1 42 8
M  V30 46 1 43 9
M  V30 47 1 44 10
M  V30 48 1 45 10
M  V30 49 1 46 11
M  V30 50 1 47 12
M  V30 51 1 48 12
M  V30 52 1 49 13
M  V30 53 1 50 14
M  V30 54 1 51 14
M  V30 55 1 52 14
M  V30 56 1 53 15
M  V30 57 1 54 16
M  V30 58 1 55 18
M  V30 59 1 56 18
M  V30 60 1 19 57 CFG=3
M  V30 61 1 58 20
M  V30 62 1 59 20
M  V30 63 1 60 21
M  V30 64 1 61 22
M  V30 65 1 62 23
M  V30 66 1 63 24
M  V30 67 1 25 64 CFG=3
M  V30 68 1 27 65 CFG=3
M  V30 69 1 29 66 CFG=3
M  V30 70 1 67 30
M  V30 71 1 68 31
M  V30 72 1 33 69 CFG=3
M  V30 73 1 70 34
M  V30 74 1 71 34
M  V30 END BOND
M  V30 END CTAB
M  END
>  <i_epik_Tot_Q>  (1) 
0

>  <i_epik_Tot_abs_Q>  (1) 
0

>  <i_i_glide_confnum>  (1) 
3618

>  <i_i_glide_lignum>  (1) 
95

>  <i_i_glide_posenum>  (1) 
72

>  <i_i_glide_rotatable_bonds>  (1) 
18

>  <i_lp_mmshare_version>  (1) 
72125

>  <i_m_source_file_index>  (1) 
61

>  <i_f3d_flags>  (1) 
0

>  <num_sample>  (1) 
100

>  <b_lp_Chiralities_Consistent>  (1) 
1

>  <r_epik_Charging_Adjusted_Penalty>  (1) 
0

>  <r_epik_Ionization_Penalty>  (1) 
0.014434527225192804

>  <r_epik_Ionization_Penalty_Charging>  (1) 
0

>  <r_epik_Ionization_Penalty_Neutral>  (1) 
0.014434527225192804

>  <r_epik_State_Penalty>  (1) 
-0

>  <r_glide_ring_energy>  (1) 
0

>  <r_i_docking_score>  (1) 
-2.2112016358060109

>  <r_i_glide_ecoul>  (1) 
-2.0040099513934613

>  <r_i_glide_eff_state_penalty>  (1) 
-0

>  <r_i_glide_einternal>  (1) 
16.427312523226313

>  <r_i_glide_emodel>  (1) 
8.8331811363027146

>  <r_i_glide_emodel_strain>  (1) 
6.8838598178516293

>  <r_i_glide_energy>  (1) 
-1.416793835952227

>  <r_i_glide_erotb>  (1) 
0.88320893883716522

>  <r_i_glide_esite>  (1) 
-0.091799229793384243

>  <r_i_glide_evdw>  (1) 
0.58721611544123431

>  <r_i_glide_gscore>  (1) 
-2.2112016358060109

>  <r_i_glide_gscore_strain>  (1) 
0.72096495446290731

>  <r_i_glide_hbond>  (1) 
0

>  <r_i_glide_ligand_efficiency>  (1) 
-0.06317718959445745

>  <r_i_glide_ligand_efficiency_ln>  (1) 
-0.48540783403563637

>  <r_i_glide_ligand_efficiency_sa>  (1) 
-0.20665677645482694

>  <r_i_glide_lipo>  (1) 
-2.258422456653685

>  <r_i_glide_metal>  (1) 
-0

>  <r_i_glide_rewards>  (1) 
-1.1939131557220566

>  <r_lp_Energy>  (1) 
38.450359999999996

>  <r_lp_tautomer_probability>  (1) 
1

>  <s_epik_Chemistry_Notes>  (1) 
This compound contains an acetal/aminal-like group ( X-CH(R)-Y where X, Y are N, S, or O) that may be acid/base labile, releasing an aldehyde.

>  <s_epik_cmdline>  (1) 
J2VwaWtfcHl0aG9uJywgJy1waHQnLCAnMS4wJywgJy1waCcsICc3LjQnLCAnLXRuJywgJzgnLCAnLW1hJywgJzUwMCcsICctaW1hZScsICc8aW5maWxlLm1hZT4nLCAnLW9tYWUnLCAnPG91dGZpbGUubWFlPic=

>  <s_epik_input>  (1) 
W2NIXTFbY0hdW2NIXVtjSF1jKGMxMilbY0hdW2NIXVtjSF1jMltOSF1bQ0BASF0oW0NIM10pW0NASF0oW09IXSlOKFtDQEBIXTNbQ0gyXU8zKVtDSDJdW0NIMl1bQ0BAXTQoT1tDQEBIXTRbQ0hdPU8pW0NIMl1bQ0gyXVtDQF0oW1NIXSkoW0NIM10pW0NAQEhdKFtPSF0pW0NIMl1bT0hd

>  <s_glide_docking_method>  (1) 
confgen

>  <s_i_glide_gridfile>  (1) 
gpcr_drd2_6luq_protein_autoprepared_prepared

>  <s_lp_Force_Field>  (1) 
S-OPLS

>  <s_lp_Variant>  (1) 
DiffSBDD_60-1

>  <s_m_source_file>  (1) 
generated_generic_title2_ligand_DiffSBDD_2026-06-23_prepared.sdf

>  <GenAI_Model>  (1) 
DiffSBDD

>  <Protein>  (1) 
generic_title2

$$$$
DiffSBDD_61
     RDKit          3D

  0  0  0  0  0  0  0  0  0  0999 V3000
M  V30 BEGIN CTAB
M  V30 COUNTS 45 46 0 0 1
M  V30 BEGIN ATOM
M  V30 1 C 6.356295 7.125665 -14.526038 0
M  V30 2 O 7.305915 4.654346 -11.429153 0 CHG=-1
M  V30 3 C 11.670534 8.993381 -5.476497 0
M  V30 4 O 8.295266 4.838291 -13.823189 0
M  V30 5 N 5.775080 6.076908 -16.725106 0
M  V30 6 O 12.226954 9.990220 -4.992173 0 CHG=-1
M  V30 7 C 9.367155 6.007274 -9.062395 0
M  V30 8 C 6.745673 6.113701 -15.621718 0 CFG=2
M  V30 9 P 6.975717 4.433761 -14.803624 0
M  V30 10 F 11.397870 9.028326 -9.578640 0
M  V30 11 C 4.426431 6.999001 -18.376855 0
M  V30 12 N 11.411771 8.991228 -6.806244 0
M  V30 13 O 9.775319 4.234865 -11.849572 0
M  V30 14 O 5.775519 4.143491 -13.985012 0 CHG=-1
M  V30 15 C 9.995995 6.913787 -6.900950 0
M  V30 16 O 8.877437 6.646632 -11.882960 0
M  V30 17 F 6.003544 6.601819 -20.083710 0
M  V30 18 P 8.548466 4.990357 -12.158419 0
M  V30 19 C 10.710675 7.962539 -7.544714 0
M  V30 20 C 10.728507 8.026504 -8.957033 0
M  V30 21 C 6.390353 5.640936 -17.977563 0
M  V30 22 C 5.121193 7.332643 -17.065488 0
M  V30 23 C 5.376360 6.020965 -19.060209 0 CFG=1
M  V30 24 C 10.052539 7.047772 -9.718575 0
M  V30 25 O 11.375840 8.015110 -4.767857 0
M  V30 26 C 10.061228 7.115724 -11.246770 0
M  V30 27 C 9.334196 5.950088 -7.668035 0
M  V30 28 O 7.427832 3.467787 -15.834507 0
M  V30 29 H 6.357600 8.146868 -14.900608 0
M  V30 30 H 5.374623 6.902745 -14.112783 0
M  V30 31 H 7.060556 7.104251 -13.697008 0
M  V30 32 H 8.850737 5.257610 -9.625754 0
M  V30 33 H 7.721745 6.391181 -16.011478 0
M  V30 34 H 3.478674 6.506071 -18.154236 0
M  V30 35 H 4.214286 7.883521 -18.977411 0
M  V30 36 H 11.739709 9.779557 -7.339908 0
M  V30 37 H 9.936014 6.843642 -5.836545 0
M  V30 38 H 7.321240 6.185605 -18.143904 0
M  V30 39 H 6.621016 4.575790 -17.980815 0
M  V30 40 H 4.409271 7.652678 -16.304518 0
M  V30 41 H 5.860068 8.120321 -17.197900 0
M  V30 42 H 4.847375 5.152399 -19.451882 0
M  V30 43 H 10.173179 8.156179 -11.554312 0
M  V30 44 H 10.942038 6.602725 -11.632688 0
M  V30 45 H 8.788526 5.163548 -7.185137 0
M  V30 END ATOM
M  V30 BEGIN BOND
M  V30 1 1 6 3
M  V30 2 1 8 1
M  V30 3 1 8 5
M  V30 4 1 9 4
M  V30 5 1 9 8
M  V30 6 1 12 3
M  V30 7 1 14 9
M  V30 8 1 18 2
M  V30 9 1 18 4
M  V30 10 2 18 13
M  V30 11 1 18 16
M  V30 12 1 19 12
M  V30 13 2 19 15
M  V30 14 1 20 10
M  V30 15 1 20 19
M  V30 16 1 21 5
M  V30 17 1 22 5
M  V30 18 1 22 11
M  V30 19 1 23 11
M  V30 20 1 23 17
M  V30 21 1 23 21
M  V30 22 1 24 7
M  V30 23 2 24 20
M  V30 24 2 25 3
M  V30 25 1 26 16
M  V30 26 1 26 24
M  V30 27 2 27 7
M  V30 28 1 27 15
M  V30 29 2 28 9
M  V30 30 1 29 1
M  V30 31 1 30 1
M  V30 32 1 31 1
M  V30 33 1 32 7
M  V30 34 1 8 33 CFG=3
M  V30 35 1 34 11
M  V30 36 1 35 11
M  V30 37 1 36 12
M  V30 38 1 37 15
M  V30 39 1 38 21
M  V30 40 1 39 21
M  V30 41 1 40 22
M  V30 42 1 41 22
M  V30 43 1 23 42 CFG=3
M  V30 44 1 43 26
M  V30 45 1 44 26
M  V30 46 1 45 27
M  V30 END BOND
M  V30 END CTAB
M  END
>  <i_epik_Tot_Q>  (1) 
-3

>  <i_epik_Tot_abs_Q>  (1) 
3

>  <i_i_glide_confnum>  (1) 
368

>  <i_i_glide_lignum>  (1) 
98

>  <i_i_glide_posenum>  (1) 
2

>  <i_i_glide_rotatable_bonds>  (1) 
9

>  <i_lp_mmshare_version>  (1) 
72125

>  <i_m_source_file_index>  (1) 
62

>  <i_f3d_flags>  (1) 
0

>  <num_sample>  (1) 
100

>  <b_lp_Chiralities_Consistent>  (1) 
1

>  <r_epik_Charging_Adjusted_Penalty>  (1) 
1.3021205518869732

>  <r_epik_Ionization_Penalty>  (1) 
1.2351473723199373

>  <r_epik_Ionization_Penalty_Charging>  (1) 
0.00073408944429159239

>  <r_epik_Ionization_Penalty_Neutral>  (1) 
1.2344132828756458

>  <r_epik_State_Penalty>  (1) 
1.3013864624426816

>  <r_glide_ring_energy>  (1) 
0

>  <r_i_docking_score>  (1) 
-2.2111804258758836

>  <r_i_glide_ecoul>  (1) 
3.441960823979783

>  <r_i_glide_eff_state_penalty>  (1) 
1.3013864624426816

>  <r_i_glide_einternal>  (1) 
10.243692599738029

>  <r_i_glide_emodel>  (1) 
-31.579707844144096

>  <r_i_glide_emodel_strain>  (1) 
2.8634647224015666

>  <r_i_glide_energy>  (1) 
-33.541801981219713

>  <r_i_glide_erotb>  (1) 
0.71811031056760655

>  <r_i_glide_esite>  (1) 
0

>  <r_i_glide_evdw>  (1) 
-36.983762805199497

>  <r_i_glide_gscore>  (1) 
-3.512566888318565

>  <r_i_glide_gscore_strain>  (1) 
0

>  <r_i_glide_hbond>  (1) 
0

>  <r_i_glide_ligand_efficiency>  (1) 
-0.078970729495567271

>  <r_i_glide_ligand_efficiency_ln>  (1) 
-0.51040536537054171

>  <r_i_glide_ligand_efficiency_sa>  (1) 
-0.2398016462872157

>  <r_i_glide_lipo>  (1) 
-1.4104563049240733

>  <r_i_glide_metal>  (1) 
-0

>  <r_i_glide_rewards>  (1) 
-1.4873268772990902

>  <r_lp_Energy>  (1) 
20.353621999999998

>  <s_epik_cmdline>  (1) 
J2VwaWtfcHl0aG9uJywgJy1waHQnLCAnMS4wJywgJy1waCcsICc3LjQnLCAnLXRuJywgJzgnLCAnLW1hJywgJzUwMCcsICctaW1hZScsICc8aW5maWxlLm1hZT4nLCAnLW9tYWUnLCAnPG91dGZpbGUubWFlPic=

>  <s_epik_input>  (1) 
W0NIMl0xW0NIMl1bQ0BASF0oRilbQ0gyXU4xW0NAQEhdKFtDSDNdKVtQQF0oPU8pKFtPSF0pT1tQQEBdKD1PKShbT0hdKU9bQ0gyXWMoYzJGKVtjSF1bY0hdW2NIXWMyW05IXUMoPU8pW09IXQ==

>  <s_glide_docking_method>  (1) 
confgen

>  <s_i_glide_gridfile>  (1) 
gpcr_drd2_6luq_protein_autoprepared_prepared

>  <s_lp_Force_Field>  (1) 
S-OPLS

>  <s_lp_Variant>  (1) 
DiffSBDD_61-3

>  <s_m_source_file>  (1) 
generated_generic_title2_ligand_DiffSBDD_2026-06-23_prepared.sdf

>  <GenAI_Model>  (1) 
DiffSBDD

>  <Protein>  (1) 
generic_title2

$$$$
DiffSBDD_2
     RDKit          3D

  0  0  0  0  0  0  0  0  0  0999 V3000
M  V30 BEGIN CTAB
M  V30 COUNTS 71 75 0 0 1
M  V30 BEGIN ATOM
M  V30 1 C 13.937415 5.268691 -18.738999 0
M  V30 2 N 9.167281 2.305702 -17.995049 0 CFG=2 CHG=1
M  V30 3 C 6.214850 3.013603 -19.351476 0
M  V30 4 C 6.911787 0.156207 -14.492819 0
M  V30 5 C 6.304713 -0.838230 -19.164543 0
M  V30 6 C 15.426923 8.740129 -19.529689 0 CFG=1
M  V30 7 C 6.020697 -0.852155 -16.644497 0
M  V30 8 O 12.681628 1.845442 -17.933398 0
M  V30 9 C 14.689010 7.609080 -18.828400 0
M  V30 10 C 10.247353 4.525526 -17.643876 0 CFG=2
M  V30 11 C 7.309400 1.371575 -16.735211 0
M  V30 12 C 11.634485 2.485677 -18.009988 0
M  V30 13 C 7.713267 1.515086 -20.691466 0
M  V30 14 C 15.057011 10.196999 -19.354885 0
M  V30 15 O 16.095580 9.589105 -18.580109 0
M  V30 16 O 10.434383 5.619524 -18.519899 0
M  V30 17 O 6.976202 2.404052 -16.158365 0
M  V30 18 C 15.288408 6.022084 -20.750237 0
M  V30 19 C 16.225836 7.106983 -21.223963 0
M  V30 20 C 6.391452 -1.473229 -17.982430 0
M  V30 21 C 8.126810 0.666704 -13.701784 0
M  V30 22 F 17.155916 9.211439 -21.172637 0
M  V30 23 C 13.377178 6.796308 -16.925759 0
M  V30 24 C 10.403004 1.856473 -18.674994 0
M  V30 25 C 14.621118 6.306810 -19.407775 0
M  V30 26 C 6.963421 1.654615 -19.348556 0
M  V30 27 C 7.146780 0.006009 -16.019926 0 CFG=1
M  V30 28 C 13.319201 5.512186 -17.498610 0
M  V30 29 C 14.055304 7.837109 -17.585047 0
M  V30 30 C 7.967565 1.412466 -18.137636 0 CFG=1
M  V30 31 C 12.596277 4.390642 -16.769475 0
M  V30 32 N 11.497443 3.741940 -17.502395 0
M  V30 33 C 16.281238 8.322437 -20.670802 0
M  V30 34 C 5.825919 0.592018 -19.330418 0
M  V30 35 C 9.008591 3.761717 -18.169269 0
M  V30 36 H 13.893338 4.282484 -19.178739 0
M  V30 37 H 5.391076 3.000255 -20.066832 0
M  V30 38 H 5.775585 3.245287 -18.385023 0
M  V30 39 H 6.827385 3.857785 -19.653476 0
M  V30 40 H 6.052628 0.802065 -14.304532 0
M  V30 41 H 6.636232 -0.809828 -14.069856 0
M  V30 42 H 6.597233 -1.355072 -20.067400 0
M  V30 43 H 5.774156 -1.684038 -15.984906 0
M  V30 44 H 5.094617 -0.281895 -16.714594 0
M  V30 45 H 10.005579 4.926684 -16.657956 0
M  V30 46 H 7.023174 1.529521 -21.536410 0
M  V30 47 H 8.414495 2.331969 -20.854904 0
M  V30 48 H 8.273061 0.581037 -20.746700 0
M  V30 49 H 15.413113 10.929399 -20.076154 0
M  V30 50 H 14.175397 10.472286 -18.784579 0
M  V30 51 H 11.352414 5.858211 -18.524474 0
M  V30 52 H 15.858898 5.096697 -20.664108 0
M  V30 53 H 14.522767 5.856780 -21.508750 0
M  V30 54 H 16.872194 6.864714 -22.054805 0
M  V30 55 H 6.752639 -2.491683 -17.953337 0
M  V30 56 H 7.890396 0.729991 -12.639377 0
M  V30 57 H 8.975041 -0.009074 -13.803922 0
M  V30 58 H 8.441646 1.658592 -14.022407 0
M  V30 59 H 12.902367 6.984977 -15.973743 0
M  V30 60 H 10.394685 2.108068 -19.735346 0
M  V30 61 H 10.500460 0.772239 -18.603049 0
M  V30 62 H 8.082123 -0.540841 -16.145174 0
M  V30 63 H 14.093821 8.817140 -17.133640 0
M  V30 64 H 8.386432 0.418046 -18.286880 0
M  V30 65 H 12.165932 4.806703 -15.860964 0
M  V30 66 H 13.341783 3.674905 -16.418629 0
M  V30 67 H 5.241087 0.632575 -20.251179 0
M  V30 68 H 5.105774 0.832921 -18.550218 0
M  V30 69 H 8.112832 4.140064 -17.677303 0
M  V30 70 H 8.902085 3.955496 -19.236400 0
M  V30 71 H 9.385221 2.204638 -17.013224 0
M  V30 END ATOM
M  V30 BEGIN BOND
M  V30 1 1 9 6
M  V30 2 2 12 8
M  V30 3 1 14 6
M  V30 4 1 6 15 CFG=1
M  V30 5 1 15 14
M  V30 6 1 16 10
M  V30 7 2 17 11
M  V30 8 1 19 18
M  V30 9 2 20 5
M  V30 10 1 20 7
M  V30 11 1 21 4
M  V30 12 1 24 2
M  V30 13 1 24 12
M  V30 14 1 25 1
M  V30 15 2 25 9
M  V30 16 1 25 18
M  V30 17 1 26 3
M  V30 18 1 26 13
M  V30 19 1 27 4
M  V30 20 1 27 7
M  V30 21 1 27 11
M  V30 22 2 28 1
M  V30 23 1 28 23
M  V30 24 1 29 9
M  V30 25 2 29 23
M  V30 26 1 30 2
M  V30 27 1 30 11
M  V30 28 1 30 26
M  V30 29 1 31 28
M  V30 30 1 32 10
M  V30 31 1 32 12
M  V30 32 1 32 31
M  V30 33 1 33 6
M  V30 34 2 33 19
M  V30 35 1 33 22
M  V30 36 1 34 5
M  V30 37 1 34 26
M  V30 38 1 35 2
M  V30 39 1 35 10
M  V30 40 1 36 1
M  V30 41 1 37 3
M  V30 42 1 38 3
M  V30 43 1 39 3
M  V30 44 1 40 4
M  V30 45 1 41 4
M  V30 46 1 42 5
M  V30 47 1 43 7
M  V30 48 1 44 7
M  V30 49 1 10 45 CFG=1
M  V30 50 1 46 13
M  V30 51 1 47 13
M  V30 52 1 48 13
M  V30 53 1 49 14
M  V30 54 1 50 14
M  V30 55 1 51 16
M  V30 56 1 52 18
M  V30 57 1 53 18
M  V30 58 1 54 19
M  V30 59 1 55 20
M  V30 60 1 56 21
M  V30 61 1 57 21
M  V30 62 1 58 21
M  V30 63 1 59 23
M  V30 64 1 60 24
M  V30 65 1 61 24
M  V30 66 1 27 62 CFG=1
M  V30 67 1 63 29
M  V30 68 1 30 64 CFG=3
M  V30 69 1 65 31
M  V30 70 1 66 31
M  V30 71 1 67 34
M  V30 72 1 68 34
M  V30 73 1 69 35
M  V30 74 1 70 35
M  V30 75 1 2 71 CFG=1
M  V30 END BOND
M  V30 END CTAB
M  END
>  <i_epik_Tot_Q>  (1) 
1

>  <i_epik_Tot_abs_Q>  (1) 
1

>  <i_i_glide_confnum>  (1) 
7

>  <i_i_glide_lignum>  (1) 
5

>  <i_i_glide_posenum>  (1) 
309

>  <i_i_glide_rotatable_bonds>  (1) 
5

>  <i_lp_mmshare_version>  (1) 
72125

>  <i_m_source_file_index>  (1) 
3

>  <i_f3d_flags>  (1) 
0

>  <num_sample>  (1) 
100

>  <b_lp_Chiralities_Consistent>  (1) 
1

>  <r_epik_Charging_Adjusted_Penalty>  (1) 
2.4002963273514464

>  <r_epik_Ionization_Penalty>  (1) 
1.2026340853706476

>  <r_epik_Ionization_Penalty_Charging>  (1) 
1.2001481636757232

>  <r_epik_Ionization_Penalty_Neutral>  (1) 
0.0024859216949244217

>  <r_epik_State_Penalty>  (1) 
1.2001481636757232

>  <r_glide_ring_energy>  (1) 
0

>  <r_i_docking_score>  (1) 
-2.1974314192750408

>  <r_i_glide_ecoul>  (1) 
-3.7174096041688776

>  <r_i_glide_eff_state_penalty>  (1) 
1.2001481636757232

>  <r_i_glide_einternal>  (1) 
4.6423203874372625

>  <r_i_glide_emodel>  (1) 
-36.93271584620787

>  <r_i_glide_emodel_strain>  (1) 
0.14710667498542307

>  <r_i_glide_energy>  (1) 
-33.257108765407224

>  <r_i_glide_erotb>  (1) 
0.26041846348708686

>  <r_i_glide_esite>  (1) 
0

>  <r_i_glide_evdw>  (1) 
-29.539699161238346

>  <r_i_glide_gscore>  (1) 
-3.397579582950764

>  <r_i_glide_gscore_strain>  (1) 
0

>  <r_i_glide_hbond>  (1) 
0

>  <r_i_glide_ligand_efficiency>  (1) 
-0.062783754836429742

>  <r_i_glide_ligand_efficiency_ln>  (1) 
-0.48238496589359858

>  <r_i_glide_ligand_efficiency_sa>  (1) 
-0.20536982527258527

>  <r_i_glide_lipo>  (1) 
-1.2023147143640247

>  <r_i_glide_metal>  (1) 
-0

>  <r_i_glide_rewards>  (1) 
-0.42108693338657721

>  <r_lp_Energy>  (1) 
76.336466000000001

>  <r_lp_tautomer_probability>  (1) 
0.99995000000000001

>  <s_epik_Chemistry_Notes>  (1) 
This compound contains an acetal/aminal-like group ( X-CH(R)-Y where X, Y are N, S, or O) that may be acid/base labile, releasing an aldehyde.

>  <s_epik_cmdline>  (1) 
J2VwaWtfcHl0aG9uJywgJy1waHQnLCAnMS4wJywgJy1waCcsICc3LjQnLCAnLXRuJywgJzgnLCAnLW1hJywgJzUwMCcsICctaW1hZScsICc8aW5maWxlLm1hZT4nLCAnLW9tYWUnLCAnPG91dGZpbGUubWFlPic=

>  <s_epik_input>  (1) 
TzFbQ0gyXVtDQF0xMmMzYyhbQ0gyXVtDSF09QzJGKVtjSF1jKFtjSF1bY0hdMylbQ0gyXU4oW0NAQEhdKFtPSF0pW0NIMl00KUMoPU8pW0NIMl1ONFtDQEhdKEM1KFtDSDNdKVtDSDNdKUMoPU8pW0NAQEhdKFtDSDJdW0NIM10pW0NIMl0vW0NIXT1bQ0hdXFtDSDJdNQ==

>  <s_glide_docking_method>  (1) 
confgen

>  <s_i_glide_gridfile>  (1) 
gpcr_drd2_6luq_protein_autoprepared_prepared

>  <s_lp_Force_Field>  (1) 
S-OPLS

>  <s_lp_Variant>  (1) 
DiffSBDD_2-2

>  <s_m_source_file>  (1) 
generated_generic_title2_ligand_DiffSBDD_2026-06-23_prepared.sdf

>  <GenAI_Model>  (1) 
DiffSBDD

>  <Protein>  (1) 
generic_title2

$$$$
DiffSBDD_80
     RDKit          3D

  0  0  0  0  0  0  0  0  0  0999 V3000
M  V30 BEGIN CTAB
M  V30 COUNTS 81 87 0 0 1
M  V30 BEGIN ATOM
M  V30 1 C 9.889102 6.964694 -10.984782 0
M  V30 2 C 9.535093 2.208457 -19.775616 0
M  V30 3 C 7.913505 6.009217 -14.665801 0
M  V30 4 O 10.539172 4.157331 -20.779373 0
M  V30 5 N 10.569447 8.920047 -5.985002 0 CHG=1
M  V30 6 C 5.419594 6.787700 -15.601037 0
M  V30 7 C 7.081067 6.777385 -13.827586 0
M  V30 8 C 10.077387 3.638709 -19.765648 0
M  V30 9 C 7.392044 8.513432 -12.022979 0
M  V30 10 C 11.657877 7.924256 -8.436635 0 CFG=2
M  V30 11 C 11.990071 9.222207 -6.169974 0 CFG=2
M  V30 12 C 8.633267 4.263854 -17.771974 0 CFG=2
M  V30 13 C 9.917762 6.068847 -8.564039 0 CFG=2
M  V30 14 O 9.375406 4.643116 -10.252577 0
M  V30 15 C 8.199729 2.784090 -17.676427 0
M  V30 16 C 10.024740 4.392395 -18.435702 0
M  V30 17 N 9.144808 5.544449 -14.476445 0
M  V30 18 O 7.807486 5.190229 -7.585114 0
M  V30 19 C 10.198716 7.562283 -6.410822 0
M  V30 20 C 5.815697 7.167528 -14.300927 0
M  V30 21 O 9.375401 8.443537 -8.390844 0
M  V30 22 C 9.252720 6.924733 -12.378945 0 CFG=2
M  V30 23 C 10.001020 4.475115 -12.490061 0
M  V30 24 C 7.715070 7.084460 -12.461406 0 CFG=2
M  V30 25 C 6.284399 6.009665 -16.405445 0
M  V30 26 O 11.963862 10.607141 -5.985043 0
M  V30 27 C 8.582024 4.924068 -16.406960 0
M  V30 28 C 10.278625 7.463500 -7.952929 0 CFG=1
M  V30 29 C 7.538072 5.652497 -15.852104 0
M  V30 30 N 9.669433 4.790234 -15.598611 0
M  V30 31 C 11.341977 6.390220 -13.565418 0
M  V30 32 C 8.174575 2.118638 -19.061963 0
M  V30 33 C 12.508187 8.812239 -7.541232 0 CFG=2
M  V30 34 C 9.251245 6.022651 -9.954285 0 CFG=2
M  V30 35 C 9.896519 5.825193 -13.239837 0 CFG=1
M  V30 36 C 5.858842 5.609792 -17.806109 0
M  V30 37 O 11.775412 9.334668 -8.641618 0
M  V30 38 C 9.197816 5.080074 -7.649392 0
M  V30 39 C 8.934103 4.135965 -11.481125 0
M  V30 40 H 9.832698 7.997128 -10.662794 0
M  V30 41 H 10.959302 6.790241 -11.031196 0
M  V30 42 H 9.449125 1.855857 -20.803623 0
M  V30 43 H 10.269215 5.441626 -18.601565 0
M  V30 44 H 10.260445 1.565043 -19.277322 0
M  V30 45 H 10.052165 9.541674 -6.592693 0
M  V30 46 H 4.458104 7.093257 -15.985050 0
M  V30 47 H 6.326291 8.653878 -11.852609 0
M  V30 48 H 7.898167 8.814581 -11.117054 0
M  V30 49 H 7.775407 9.190329 -12.784798 0
M  V30 50 H 12.160397 7.338501 -9.203335 0
M  V30 51 H 12.575383 8.790233 -5.366134 0
M  V30 52 H 8.009274 4.772960 -18.490683 0
M  V30 53 H 10.888684 5.591126 -8.673572 0
M  V30 54 H 8.878316 2.239741 -17.017670 0
M  V30 55 H 7.212585 2.708000 -17.219229 0
M  V30 56 H 10.800250 3.978943 -17.790422 0
M  V30 57 H 7.451662 5.273916 -8.459037 0
M  V30 58 H 9.182598 7.365884 -6.063686 0
M  V30 59 H 10.859490 6.842527 -5.924304 0
M  V30 60 H 5.156706 7.756529 -13.681656 0
M  V30 61 H 8.526301 8.051327 -8.617653 0
M  V30 62 H 9.583686 7.873818 -12.785027 0
M  V30 63 H 10.956062 4.391238 -11.985025 0
M  V30 64 H 10.001314 3.647535 -13.185032 0
M  V30 65 H 7.212112 6.414491 -11.768564 0
M  V30 66 H 12.833404 10.953559 -6.124386 0
M  V30 67 H 12.061246 6.113796 -12.794184 0
M  V30 68 H 11.727054 6.024312 -14.517490 0
M  V30 69 H 11.424076 7.473651 -13.585061 0
M  V30 70 H 7.408340 2.590343 -19.678390 0
M  V30 71 H 7.882364 1.072918 -18.962796 0
M  V30 72 H 13.585075 8.843134 -7.691794 0
M  V30 73 H 8.194316 6.246280 -9.865561 0
M  V30 74 H 4.805149 5.846135 -17.957475 0
M  V30 75 H 6.408771 6.182672 -18.553011 0
M  V30 76 H 5.959377 4.543762 -17.985069 0
M  V30 77 H 9.616889 5.190248 -6.670237 0
M  V30 78 H 9.375393 4.057894 -7.985036 0
M  V30 79 H 8.975355 3.056402 -11.372000 0
M  V30 80 H 7.917472 4.398480 -11.760469 0
M  V30 81 H 10.311849 9.083154 -5.025919 0
M  V30 END ATOM
M  V30 BEGIN BOND
M  V30 1 2 7 3
M  V30 2 1 8 2
M  V30 3 2 8 4
M  V30 4 1 11 5
M  V30 5 1 15 12
M  V30 6 1 16 8
M  V30 7 1 16 12
M  V30 8 1 17 3
M  V30 9 1 19 5
M  V30 10 2 20 6
M  V30 11 1 20 7
M  V30 12 1 22 1
M  V30 13 1 24 7
M  V30 14 1 24 9
M  V30 15 1 24 22
M  V30 16 1 25 6
M  V30 17 1 26 11
M  V30 18 1 27 12
M  V30 19 1 28 10
M  V30 20 1 28 13
M  V30 21 1 28 19
M  V30 22 1 28 21 CFG=3
M  V30 23 1 29 3
M  V30 24 2 29 25
M  V30 25 1 29 27
M  V30 26 1 30 17
M  V30 27 2 30 27
M  V30 28 1 32 2
M  V30 29 1 32 15
M  V30 30 1 33 10
M  V30 31 1 33 11
M  V30 32 1 34 1
M  V30 33 1 34 13
M  V30 34 1 34 14
M  V30 35 1 35 17
M  V30 36 1 35 22
M  V30 37 1 35 23
M  V30 38 1 35 31 CFG=3
M  V30 39 1 36 25
M  V30 40 1 37 10
M  V30 41 1 37 33
M  V30 42 1 38 13
M  V30 43 1 38 18
M  V30 44 1 39 14
M  V30 45 1 39 23
M  V30 46 1 40 1
M  V30 47 1 41 1
M  V30 48 1 42 2
M  V30 49 1 43 16
M  V30 50 1 44 2
M  V30 51 1 45 5
M  V30 52 1 46 6
M  V30 53 1 47 9
M  V30 54 1 48 9
M  V30 55 1 49 9
M  V30 56 1 10 50 CFG=3
M  V30 57 1 11 51 CFG=1
M  V30 58 1 12 52 CFG=3
M  V30 59 1 13 53 CFG=3
M  V30 60 1 54 15
M  V30 61 1 55 15
M  V30 62 1 56 16
M  V30 63 1 57 18
M  V30 64 1 58 19
M  V30 65 1 59 19
M  V30 66 1 60 20
M  V30 67 1 61 21
M  V30 68 1 22 62 CFG=3
M  V30 69 1 63 23
M  V30 70 1 64 23
M  V30 71 1 24 65 CFG=1
M  V30 72 1 66 26
M  V30 73 1 67 31
M  V30 74 1 68 31
M  V30 75 1 69 31
M  V30 76 1 70 32
M  V30 77 1 71 32
M  V30 78 1 33 72 CFG=3
M  V30 79 1 34 73 CFG=1
M  V30 80 1 74 36
M  V30 81 1 75 36
M  V30 82 1 76 36
M  V30 83 1 77 38
M  V30 84 1 78 38
M  V30 85 1 79 39
M  V30 86 1 80 39
M  V30 87 1 81 5
M  V30 END BOND
M  V30 END CTAB
M  END
>  <i_epik_Tot_Q>  (1) 
1

>  <i_epik_Tot_abs_Q>  (1) 
1

>  <i_i_glide_confnum>  (1) 
219

>  <i_i_glide_lignum>  (1) 
141

>  <i_i_glide_posenum>  (1) 
144

>  <i_i_glide_rotatable_bonds>  (1) 
7

>  <i_lp_mmshare_version>  (1) 
72125

>  <i_m_source_file_index>  (1) 
81

>  <i_f3d_flags>  (1) 
0

>  <num_sample>  (1) 
100

>  <b_lp_Chiralities_Consistent>  (1) 
1

>  <r_epik_Charging_Adjusted_Penalty>  (1) 
1.2255087210735522

>  <r_epik_Ionization_Penalty>  (1) 
1.2155625160302366

>  <r_epik_Ionization_Penalty_Charging>  (1) 
0.066233371384416553

>  <r_epik_Ionization_Penalty_Neutral>  (1) 
1.14932914464582

>  <r_epik_State_Penalty>  (1) 
1.1592753496891357

>  <r_glide_ring_energy>  (1) 
0

>  <r_i_docking_score>  (1) 
-2.1646458080227484

>  <r_i_glide_ecoul>  (1) 
-2.5357917059230592

>  <r_i_glide_eff_state_penalty>  (1) 
1.1592753496891357

>  <r_i_glide_einternal>  (1) 
17.114331170184709

>  <r_i_glide_emodel>  (1) 
-19.810369448152208

>  <r_i_glide_emodel_strain>  (1) 
4.4719966581223787

>  <r_i_glide_energy>  (1) 
-9.1112683784184298

>  <r_i_glide_erotb>  (1) 
0.2829020549976658

>  <r_i_glide_esite>  (1) 
0

>  <r_i_glide_evdw>  (1) 
-6.5754766724953706

>  <r_i_glide_gscore>  (1) 
-3.3239211577118843

>  <r_i_glide_gscore_strain>  (1) 
0.11799916453059467

>  <r_i_glide_hbond>  (1) 
-0.18163651983165988

>  <r_i_glide_ligand_efficiency>  (1) 
-0.055503738667249961

>  <r_i_glide_ligand_efficiency_ln>  (1) 
-0.46416150836543946

>  <r_i_glide_ligand_efficiency_sa>  (1) 
-0.18822491369844596

>  <r_i_glide_lipo>  (1) 
-1.9168160375506922

>  <r_i_glide_metal>  (1) 
-0

>  <r_i_glide_rewards>  (1) 
-0.91722723034456521

>  <r_lp_Energy>  (1) 
36.773640999999998

>  <r_lp_tautomer_probability>  (1) 
0.99999997999999979

>  <s_epik_Chemistry_Notes>  (1) 
This compound contains an acetal/aminal-like group ( X-CH(R)-Y where X, Y are N, S, or O) that may be acid/base labile, releasing an aldehyde.

>  <s_epik_cmdline>  (1) 
J2VwaWtfcHl0aG9uJywgJy1waHQnLCAnMS4wJywgJy1waCcsICc3LjQnLCAnLXRuJywgJzgnLCAnLW1hJywgJzUwMCcsICctaW1hZScsICc8aW5maWxlLm1hZT4nLCAnLW9tYWUnLCAnPG91dGZpbGUubWFlPic=

>  <s_epik_input>  (1) 
W0NASF0xMltDQEBIXShPMilbQ0BASF0oW09IXSlbTkhdW0NIMl1bQ0BdMShbT0hdKVtDQEBIXShbQ0gyXVtPSF0pW0NASF0oT1tDSDJdW0NIMl0zKVtDSDJdW0NAQEhdNFtDQEBIXShbQ0gzXSljKGM1bjZbQ0BdMzRbQ0gzXSlbY0hdW2NIXWMoW0NIM10pYzVjKG42KVtDQEhdKFtDSDJdW0NIMl1bQ0gyXTcpW0NIXT1DN1tPSF0=

>  <s_glide_docking_method>  (1) 
confgen

>  <s_i_glide_gridfile>  (1) 
gpcr_drd2_6luq_protein_autoprepared_prepared

>  <s_lp_Force_Field>  (1) 
S-OPLS

>  <s_lp_Variant>  (1) 
DiffSBDD_80-3

>  <s_m_source_file>  (1) 
generated_generic_title2_ligand_DiffSBDD_2026-06-23_prepared.sdf

>  <GenAI_Model>  (1) 
DiffSBDD

>  <Protein>  (1) 
generic_title2

$$$$
DiffSBDD_25
     RDKit          3D

  0  0  0  0  0  0  0  0  0  0999 V3000
M  V30 BEGIN CTAB
M  V30 COUNTS 64 67 0 0 1
M  V30 BEGIN ATOM
M  V30 1 C 12.626271 7.225268 -23.020973 0
M  V30 2 C 9.164737 -0.061242 -18.147940 0
M  V30 3 C 14.982036 2.773703 -18.620250 0
M  V30 4 C 12.673283 2.910383 -17.688435 0
M  V30 5 N 14.018152 3.500798 -17.782220 0
M  V30 6 C 6.993552 2.709054 -19.662607 0
M  V30 7 C 15.484317 4.532128 -16.214051 0
M  V30 8 C 8.123360 2.000264 -19.199909 0
M  V30 9 C 15.592223 3.610107 -19.819460 0 CFG=1
M  V30 10 C 13.128410 6.326421 -20.758363 0
M  V30 11 C 13.750190 5.895489 -17.181796 0
M  V30 12 O 11.546511 -0.009774 -17.985583 0
M  V30 13 C 12.159800 7.339462 -18.425473 0 CFG=1
M  V30 14 C 17.515662 5.115273 -20.565846 0
M  V30 15 C 9.458029 2.598245 -19.299461 0
M  V30 16 C 7.960127 0.711784 -18.650229 0
M  V30 17 C 14.610647 4.337622 -20.810630 0
M  V30 18 C 10.593508 1.982777 -18.906655 0
M  V30 19 C 12.558920 5.990212 -22.113277 0
M  V30 20 O 17.201934 6.268838 -20.929369 0
M  V30 21 C 12.679528 6.053145 -17.967837 0
M  V30 22 C 12.558182 7.486291 -19.921363 0 CFG=2
M  V30 23 C 5.712152 2.131999 -19.579839 0
M  V30 24 C 10.537428 0.607011 -18.326658 0
M  V30 25 C 14.410950 4.609880 -17.018186 0
M  V30 26 C 16.757110 4.536281 -19.374636 0
M  V30 27 C 11.107944 7.483205 -19.504372 0
M  V30 28 C 5.552641 0.846387 -19.032140 0
M  V30 29 C 6.674588 0.136976 -18.565918 0
M  V30 30 C 11.977470 2.608351 -19.042453 0
M  V30 31 N 14.108006 5.619498 -20.257797 0 CHG=1
M  V30 32 O 18.386413 4.390266 -21.090400 0 CHG=-1
M  V30 33 H 12.186070 7.002295 -23.989989 0
M  V30 34 H 13.656450 7.542955 -23.188798 0
M  V30 35 H 12.074717 8.070742 -22.607555 0
M  V30 36 H 9.022264 -0.266088 -17.086543 0
M  V30 37 H 9.188975 -1.027764 -18.651430 0
M  V30 38 H 15.775479 2.403632 -17.978380 0
M  V30 39 H 14.535100 1.863851 -19.015245 0
M  V30 40 H 12.032258 3.536068 -17.066279 0
M  V30 41 H 12.789062 1.987768 -17.120156 0
M  V30 42 H 7.111613 3.695931 -20.085763 0
M  V30 43 H 15.826412 5.392337 -15.655988 0
M  V30 44 H 16.029946 3.608385 -16.099012 0
M  V30 45 H 16.068447 2.843124 -20.432724 0
M  V30 46 H 14.213584 6.773409 -16.752832 0
M  V30 47 H 12.395502 8.179334 -17.776942 0
M  V30 48 H 9.514274 3.589471 -19.725578 0
M  V30 49 H 15.113370 4.574321 -21.749503 0
M  V30 50 H 13.755964 3.701255 -21.039045 0
M  V30 51 H 13.071153 5.166165 -22.605360 0
M  V30 52 H 12.237809 5.195567 -18.426673 0
M  V30 53 H 4.851307 2.676427 -19.937922 0
M  V30 54 H 16.408099 5.358817 -18.752500 0
M  V30 55 H 17.485418 3.990228 -18.784636 0
M  V30 56 H 10.504959 6.604536 -19.726182 0
M  V30 57 H 10.577036 8.430127 -19.574066 0
M  V30 58 H 4.568708 0.403921 -18.968984 0
M  V30 59 H 6.550516 -0.850289 -18.144312 0
M  V30 60 H 11.884694 3.512931 -19.639881 0
M  V30 61 H 12.564121 1.923425 -19.652204 0
M  V30 62 H 12.978182 8.436213 -20.247044 0
M  V30 63 H 11.521193 5.681238 -21.986027 0
M  V30 64 H 14.484301 5.896174 -19.354541 0
M  V30 END ATOM
M  V30 BEGIN BOND
M  V30 1 1 5 3
M  V30 2 1 5 4
M  V30 3 2 8 6
M  V30 4 1 9 3
M  V30 5 1 15 8
M  V30 6 1 16 2
M  V30 7 1 16 8
M  V30 8 1 17 9
M  V30 9 2 18 15
M  V30 10 1 19 1
M  V30 11 1 19 10
M  V30 12 2 20 14
M  V30 13 2 21 11
M  V30 14 1 21 13
M  V30 15 1 22 10
M  V30 16 1 22 13
M  V30 17 1 23 6
M  V30 18 1 24 2
M  V30 19 2 24 12
M  V30 20 1 24 18
M  V30 21 1 25 5
M  V30 22 2 25 7
M  V30 23 1 25 11
M  V30 24 1 26 9
M  V30 25 1 26 14
M  V30 26 1 27 13
M  V30 27 1 27 22
M  V30 28 2 28 23
M  V30 29 2 29 16
M  V30 30 1 29 28
M  V30 31 1 30 4
M  V30 32 1 30 18
M  V30 33 2 31 10
M  V30 34 1 31 17
M  V30 35 1 32 14
M  V30 36 1 33 1
M  V30 37 1 34 1
M  V30 38 1 35 1
M  V30 39 1 36 2
M  V30 40 1 37 2
M  V30 41 1 38 3
M  V30 42 1 39 3
M  V30 43 1 40 4
M  V30 44 1 41 4
M  V30 45 1 42 6
M  V30 46 1 43 7
M  V30 47 1 44 7
M  V30 48 1 9 45 CFG=3
M  V30 49 1 46 11
M  V30 50 1 13 47 CFG=1
M  V30 51 1 48 15
M  V30 52 1 49 17
M  V30 53 1 50 17
M  V30 54 1 51 19
M  V30 55 1 52 21
M  V30 56 1 53 23
M  V30 57 1 54 26
M  V30 58 1 55 26
M  V30 59 1 56 27
M  V30 60 1 57 27
M  V30 61 1 58 28
M  V30 62 1 59 29
M  V30 63 1 60 30
M  V30 64 1 61 30
M  V30 65 1 22 62 CFG=1
M  V30 66 1 63 19
M  V30 67 1 64 31
M  V30 END BOND
M  V30 END CTAB
M  END
>  <i_epik_Tot_Q>  (1) 
0

>  <i_epik_Tot_abs_Q>  (1) 
2

>  <i_i_glide_confnum>  (1) 
112

>  <i_i_glide_lignum>  (1) 
43

>  <i_i_glide_posenum>  (1) 
254

>  <i_i_glide_rotatable_bonds>  (1) 
6

>  <i_lp_mmshare_version>  (1) 
72125

>  <i_m_source_file_index>  (1) 
26

>  <i_f3d_flags>  (1) 
0

>  <num_sample>  (1) 
100

>  <b_lp_Chiralities_Consistent>  (1) 
1

>  <r_epik_Charging_Adjusted_Penalty>  (1) 
0.12353365736142194

>  <r_epik_Ionization_Penalty>  (1) 
13.465358995569625

>  <r_epik_Ionization_Penalty_Charging>  (1) 
0.062700894571276394

>  <r_epik_Ionization_Penalty_Neutral>  (1) 
13.402658100998348

>  <r_epik_State_Penalty>  (1) 
0.060832762790145552

>  <r_glide_ring_energy>  (1) 
0

>  <r_i_docking_score>  (1) 
-2.1131847778567927

>  <r_i_glide_ecoul>  (1) 
0.090257462651603393

>  <r_i_glide_eff_state_penalty>  (1) 
0.060832762790145552

>  <r_i_glide_einternal>  (1) 
3.0679529530726937

>  <r_i_glide_emodel>  (1) 
-24.340751888750248

>  <r_i_glide_emodel_strain>  (1) 
0.17386808223015748

>  <r_i_glide_energy>  (1) 
-22.304231681153354

>  <r_i_glide_erotb>  (1) 
0.42539970400538585

>  <r_i_glide_esite>  (1) 
0

>  <r_i_glide_evdw>  (1) 
-22.394489143804957

>  <r_i_glide_gscore>  (1) 
-2.1740175406469384

>  <r_i_glide_gscore_strain>  (1) 
0

>  <r_i_glide_hbond>  (1) 
0

>  <r_i_glide_ligand_efficiency>  (1) 
-0.066037024308024772

>  <r_i_glide_ligand_efficiency_ln>  (1) 
-0.47319967500361204

>  <r_i_glide_ligand_efficiency_sa>  (1) 
-0.20965448371081619

>  <r_i_glide_lipo>  (1) 
-0.84308143261521362

>  <r_i_glide_metal>  (1) 
-0

>  <r_i_glide_rewards>  (1) 
-0.65014997424460352

>  <r_lp_Energy>  (1) 
49.732040999999995

>  <s_epik_Chemistry_Notes>  (1) 
This compound has an imine and may undergo hydrolysis.

>  <s_epik_cmdline>  (1) 
J2VwaWtfcHl0aG9uJywgJy1waHQnLCAnMS4wJywgJy1waCcsICc3LjQnLCAnLXRuJywgJzgnLCAnLW1hJywgJzUwMCcsICctaW1hZScsICc8aW5maWxlLm1hZT4nLCAnLW9tYWUnLCAnPG91dGZpbGUubWFlPic=

>  <s_epik_input>  (1) 
W0NIM10vW0NIXT1DKFxbQ0BIXShbQ0BIXTEyKVtDSDJdMilbTkhdW0NIMl1bQ0BASF0oW0NIMl1DKD1PKVtPSF0pW0NIMl1OKEMoPVtDSDJdKS9bQ0hdPVtDSF0vMSlbQ0gyXVtDSDJdQyg9W0NIXTMpQyg9TylbQ0gyXWMoYzM0KVtjSF1bY0hdW2NIXVtjSF00

>  <s_glide_docking_method>  (1) 
confgen

>  <s_i_glide_gridfile>  (1) 
gpcr_drd2_6luq_protein_autoprepared_prepared

>  <s_lp_Force_Field>  (1) 
S-OPLS

>  <s_lp_Variant>  (1) 
DiffSBDD_25-1

>  <s_m_source_file>  (1) 
generated_generic_title2_ligand_DiffSBDD_2026-06-23_prepared.sdf

>  <GenAI_Model>  (1) 
DiffSBDD

>  <Protein>  (1) 
generic_title2

$$$$
DiffSBDD_2
     RDKit          3D

  0  0  0  0  0  0  0  0  0  0999 V3000
M  V30 BEGIN CTAB
M  V30 COUNTS 71 75 0 0 1
M  V30 BEGIN ATOM
M  V30 1 C 6.736392 -1.594338 -18.537293 0
M  V30 2 N 7.072708 4.021524 -19.541348 0 CFG=1 CHG=1
M  V30 3 C 9.214707 6.496563 -20.040284 0
M  V30 4 C 4.217867 6.948531 -17.234446 0
M  V30 5 C 5.919028 7.693667 -21.685444 0
M  V30 6 C 4.535939 -4.127778 -20.424928 0 CFG=1
M  V30 7 C 4.651739 8.016606 -19.511335 0
M  V30 8 O 9.632442 2.026952 -17.733078 0
M  V30 9 C 5.595874 -3.084953 -20.122235 0
M  V30 10 C 6.914933 1.657609 -20.090635 0 CFG=2
M  V30 11 C 6.268834 6.191705 -18.640088 0
M  V30 12 C 8.668292 2.277742 -18.454468 0
M  V30 13 C 8.139928 5.651614 -22.128432 0
M  V30 14 C 3.769089 -4.134623 -21.725154 0
M  V30 15 O 4.906484 -4.982582 -21.519080 0
M  V30 16 O 5.708608 1.623025 -19.345854 0
M  V30 17 O 6.975392 6.345141 -17.647685 0
M  V30 18 C 4.883709 -3.086787 -17.661929 0
M  V30 19 C 4.143886 -4.364052 -17.988959 0
M  V30 20 C 4.759966 7.824140 -21.016387 0
M  V30 21 C 4.931503 7.960839 -16.310642 0
M  V30 22 F 3.318626 -5.972250 -19.413616 0
M  V30 23 C 7.405424 -1.619450 -20.880277 0
M  V30 24 C 8.094395 3.712557 -18.492371 0
M  V30 25 C 5.760781 -2.575942 -18.800660 0
M  V30 26 C 7.854222 6.286497 -20.746042 0
M  V30 27 C 4.820463 6.737380 -18.653118 0 CFG=1
M  V30 28 C 7.555108 -1.113931 -19.574864 0
M  V30 29 C 6.431390 -2.596185 -21.153613 0
M  V30 30 C 6.785650 5.455706 -19.904775 0 CFG=1
M  V30 31 C 8.595937 -0.043408 -19.288543 0
M  V30 32 N 8.080578 1.341213 -19.244367 0
M  V30 33 C 3.993478 -4.823882 -19.233328 0
M  V30 34 C 7.290364 7.708919 -21.031745 0
M  V30 35 C 7.036935 3.064970 -20.666221 0
M  V30 36 H 6.854315 -1.207971 -17.534597 0
M  V30 37 H 9.810452 7.250460 -20.556781 0
M  V30 38 H 9.107487 6.838941 -19.011608 0
M  V30 39 H 9.824296 5.594488 -20.041234 0
M  V30 40 H 3.182181 7.270378 -17.352809 0
M  V30 41 H 4.156885 5.990230 -16.719006 0
M  V30 42 H 5.899395 7.556556 -22.757485 0
M  V30 43 H 3.659212 8.432194 -19.336351 0
M  V30 44 H 5.345505 8.792084 -19.190151 0
M  V30 45 H 6.831765 0.977100 -20.936773 0
M  V30 46 H 8.600584 6.369526 -22.808444 0
M  V30 47 H 8.848272 4.828270 -22.068338 0
M  V30 48 H 7.231508 5.292189 -22.612928 0
M  V30 49 H 2.822508 -4.667667 -21.786179 0
M  V30 50 H 3.919401 -3.322009 -22.433099 0
M  V30 51 H 5.273611 0.797329 -19.518219 0
M  V30 52 H 5.510327 -3.271481 -16.787313 0
M  V30 53 H 4.175404 -2.308584 -17.382637 0
M  V30 54 H 3.722639 -4.910331 -17.160520 0
M  V30 55 H 3.828119 7.792545 -21.563122 0
M  V30 56 H 4.239579 8.390251 -15.585593 0
M  V30 57 H 5.732556 7.488423 -15.742604 0
M  V30 58 H 5.375420 8.787816 -16.860765 0
M  V30 59 H 8.035114 -1.251586 -21.677295 0
M  V30 60 H 7.641043 3.879823 -17.515372 0
M  V30 61 H 8.940647 4.387444 -18.542966 0
M  V30 62 H 4.213062 5.967473 -19.127312 0
M  V30 63 H 6.320985 -2.972522 -22.159908 0
M  V30 64 H 5.916675 5.366389 -20.555605 0
M  V30 65 H 9.382835 -0.094656 -20.041952 0
M  V30 66 H 9.072243 -0.314427 -18.343906 0
M  V30 67 H 7.958715 8.272079 -21.684841 0
M  V30 68 H 7.262553 8.294195 -20.116969 0
M  V30 69 H 7.945052 3.111199 -21.261188 0
M  V30 70 H 6.195615 3.276562 -21.327799 0
M  V30 71 H 6.225595 3.736347 -19.065225 0
M  V30 END ATOM
M  V30 BEGIN BOND
M  V30 1 1 9 6
M  V30 2 2 12 8
M  V30 3 1 14 6
M  V30 4 1 6 15 CFG=3
M  V30 5 1 15 14
M  V30 6 1 16 10
M  V30 7 2 17 11
M  V30 8 1 19 18
M  V30 9 2 20 5
M  V30 10 1 20 7
M  V30 11 1 21 4
M  V30 12 1 24 2
M  V30 13 1 24 12
M  V30 14 1 25 1
M  V30 15 2 25 9
M  V30 16 1 25 18
M  V30 17 1 26 3
M  V30 18 1 26 13
M  V30 19 1 27 4
M  V30 20 1 27 7
M  V30 21 1 27 11
M  V30 22 2 28 1
M  V30 23 1 28 23
M  V30 24 1 29 9
M  V30 25 2 29 23
M  V30 26 1 30 2
M  V30 27 1 30 11
M  V30 28 1 30 26
M  V30 29 1 31 28
M  V30 30 1 32 10
M  V30 31 1 32 12
M  V30 32 1 32 31
M  V30 33 1 33 6
M  V30 34 2 33 19
M  V30 35 1 33 22
M  V30 36 1 34 5
M  V30 37 1 34 26
M  V30 38 1 35 2
M  V30 39 1 35 10
M  V30 40 1 36 1
M  V30 41 1 37 3
M  V30 42 1 38 3
M  V30 43 1 39 3
M  V30 44 1 40 4
M  V30 45 1 41 4
M  V30 46 1 42 5
M  V30 47 1 43 7
M  V30 48 1 44 7
M  V30 49 1 10 45 CFG=3
M  V30 50 1 46 13
M  V30 51 1 47 13
M  V30 52 1 48 13
M  V30 53 1 49 14
M  V30 54 1 50 14
M  V30 55 1 51 16
M  V30 56 1 52 18
M  V30 57 1 53 18
M  V30 58 1 54 19
M  V30 59 1 55 20
M  V30 60 1 56 21
M  V30 61 1 57 21
M  V30 62 1 58 21
M  V30 63 1 59 23
M  V30 64 1 60 24
M  V30 65 1 61 24
M  V30 66 1 27 62 CFG=3
M  V30 67 1 63 29
M  V30 68 1 30 64 CFG=3
M  V30 69 1 65 31
M  V30 70 1 66 31
M  V30 71 1 67 34
M  V30 72 1 68 34
M  V30 73 1 69 35
M  V30 74 1 70 35
M  V30 75 1 2 71 CFG=1
M  V30 END BOND
M  V30 END CTAB
M  END
>  <i_epik_Tot_Q>  (1) 
1

>  <i_epik_Tot_abs_Q>  (1) 
1

>  <i_i_glide_confnum>  (1) 
3

>  <i_i_glide_lignum>  (1) 
6

>  <i_i_glide_posenum>  (1) 
117

>  <i_i_glide_rotatable_bonds>  (1) 
5

>  <i_lp_mmshare_version>  (1) 
72125

>  <i_m_source_file_index>  (1) 
3

>  <i_f3d_flags>  (1) 
0

>  <num_sample>  (1) 
100

>  <b_lp_Chiralities_Consistent>  (1) 
1

>  <r_epik_Charging_Adjusted_Penalty>  (1) 
2.4002963273514464

>  <r_epik_Ionization_Penalty>  (1) 
1.2026340853706476

>  <r_epik_Ionization_Penalty_Charging>  (1) 
1.2001481636757232

>  <r_epik_Ionization_Penalty_Neutral>  (1) 
0.0024859216949244217

>  <r_epik_State_Penalty>  (1) 
1.2001481636757232

>  <r_glide_ring_energy>  (1) 
0

>  <r_i_docking_score>  (1) 
-2.0531807655462595

>  <r_i_glide_ecoul>  (1) 
-1.8336959745029189

>  <r_i_glide_eff_state_penalty>  (1) 
1.2001481636757232

>  <r_i_glide_einternal>  (1) 
20.773351624069722

>  <r_i_glide_emodel>  (1) 
-24.331682032163542

>  <r_i_glide_emodel_strain>  (1) 
0.94330638371265252

>  <r_i_glide_energy>  (1) 
-29.755851300919932

>  <r_i_glide_erotb>  (1) 
0.26041846348708686

>  <r_i_glide_esite>  (1) 
-0.0085582702325774449

>  <r_i_glide_evdw>  (1) 
-27.922155326417013

>  <r_i_glide_gscore>  (1) 
-3.2533289292219827

>  <r_i_glide_gscore_strain>  (1) 
0

>  <r_i_glide_hbond>  (1) 
0

>  <r_i_glide_ligand_efficiency>  (1) 
-0.058662307587035986

>  <r_i_glide_ligand_efficiency_ln>  (1) 
-0.45071874592936223

>  <r_i_glide_ligand_efficiency_sa>  (1) 
-0.19188829802587395

>  <r_i_glide_lipo>  (1) 
-1.3375213283358112

>  <r_i_glide_metal>  (1) 
-0

>  <r_i_glide_rewards>  (1) 
-0.49650563164439232

>  <r_lp_Energy>  (1) 
72.081104999999994

>  <r_lp_tautomer_probability>  (1) 
0.99995000000000001

>  <s_epik_Chemistry_Notes>  (1) 
This compound contains an acetal/aminal-like group ( X-CH(R)-Y where X, Y are N, S, or O) that may be acid/base labile, releasing an aldehyde.

>  <s_epik_cmdline>  (1) 
J2VwaWtfcHl0aG9uJywgJy1waHQnLCAnMS4wJywgJy1waCcsICc3LjQnLCAnLXRuJywgJzgnLCAnLW1hJywgJzUwMCcsICctaW1hZScsICc8aW5maWxlLm1hZT4nLCAnLW9tYWUnLCAnPG91dGZpbGUubWFlPic=

>  <s_epik_input>  (1) 
TzFbQ0gyXVtDQF0xMmMzYyhbQ0gyXVtDSF09QzJGKVtjSF1jKFtjSF1bY0hdMylbQ0gyXU4oW0NAQEhdKFtPSF0pW0NIMl00KUMoPU8pW0NIMl1ONFtDQEhdKEM1KFtDSDNdKVtDSDNdKUMoPU8pW0NAQEhdKFtDSDJdW0NIM10pW0NIMl0vW0NIXT1bQ0hdXFtDSDJdNQ==

>  <s_glide_docking_method>  (1) 
confgen

>  <s_i_glide_gridfile>  (1) 
gpcr_drd2_6luq_protein_autoprepared_prepared

>  <s_lp_Force_Field>  (1) 
S-OPLS

>  <s_lp_Variant>  (1) 
DiffSBDD_2-3

>  <s_m_source_file>  (1) 
generated_generic_title2_ligand_DiffSBDD_2026-06-23_prepared.sdf

>  <GenAI_Model>  (1) 
DiffSBDD

>  <Protein>  (1) 
generic_title2

$$$$
DiffSBDD_87
     RDKit          3D

  0  0  0  0  0  0  0  0  0  0999 V3000
M  V30 BEGIN CTAB
M  V30 COUNTS 75 78 0 0 1
M  V30 BEGIN ATOM
M  V30 1 S 4.625837 7.622464 -22.700929 0
M  V30 2 C 8.110663 9.547681 -10.813514 0
M  V30 3 C 8.483146 5.044089 -8.474260 0
M  V30 4 C 9.773694 5.577588 -10.366576 0
M  V30 5 O 6.510097 11.191867 -22.384059 0
M  V30 6 C 5.167460 7.000642 -16.432632 0
M  V30 7 C 7.652131 4.715725 -14.635541 0
M  V30 8 C 7.483175 10.347294 -21.768558 0
M  V30 9 C 5.581940 5.310512 -21.663440 0
M  V30 10 C 6.300417 6.169252 -16.234553 0
M  V30 11 C 11.791351 7.292720 -10.271770 0
M  V30 12 C 6.070280 9.880977 -22.003158 0 CFG=2
M  V30 13 O 4.908207 7.151905 -20.107237 0
M  V30 14 C 7.991912 4.305381 -13.329054 0
M  V30 15 C 5.706566 8.991593 -23.169274 0
M  V30 16 C 5.537595 6.823895 -21.343429 0 CFG=2
M  V30 17 N 8.404689 5.413632 -9.906119 0
M  V30 18 C 6.552090 6.042164 -18.683609 0
M  V30 19 C 6.994477 5.701112 -17.386732 0
M  V30 20 C 9.078834 8.390277 -10.912923 0
M  V30 21 C 5.397656 6.837398 -18.852718 0
M  V30 22 C 4.721044 7.317541 -17.725110 0
M  V30 23 C 6.189413 6.432866 -13.703761 0
M  V30 24 C 10.574415 6.481068 -8.165224 0
M  V30 25 N 9.575119 7.944644 -9.761190 0
M  V30 26 C 10.456802 6.805521 -9.667081 0 CFG=2
M  V30 27 C 9.192843 6.108564 -7.610933 0
M  V30 28 O 9.376747 7.918675 -12.010594 0
M  V30 29 C 6.402590 3.991059 -10.209008 0
M  V30 30 C 8.087789 5.195178 -22.333957 0
M  V30 31 C 7.737317 4.452961 -10.798277 0 CFG=1
M  V30 32 C 6.727062 5.775986 -14.847433 0
M  V30 33 C 7.427918 4.950093 -12.213439 0
M  V30 34 C 6.624943 4.950925 -22.742491 0
M  V30 35 C 6.542208 6.024537 -12.403993 0
M  V30 36 H 8.575334 10.393965 -10.385273 0
M  V30 37 H 7.890504 9.590199 -11.865970 0
M  V30 38 H 7.118939 9.590329 -10.385057 0
M  V30 39 H 7.488820 4.939627 -8.049920 0
M  V30 40 H 8.999667 4.092172 -8.352777 0
M  V30 41 H 10.175369 4.604084 -10.131062 0
M  V30 42 H 9.826481 5.660475 -11.451128 0
M  V30 43 H 4.621757 7.379426 -15.590501 0
M  V30 44 H 8.077790 4.192771 -15.473265 0
M  V30 45 H 7.801413 10.688382 -20.784850 0
M  V30 46 H 8.257341 9.989586 -22.444051 0
M  V30 47 H 5.753771 4.697133 -20.784026 0
M  V30 48 H 4.599002 4.991870 -22.012401 0
M  V30 49 H 12.639480 6.790645 -9.855505 0
M  V30 50 H 11.821756 7.185458 -11.356841 0
M  V30 51 H 11.963741 8.348152 -10.052063 0
M  V30 52 H 5.376199 9.890779 -21.166477 0
M  V30 53 H 8.672025 3.478516 -13.186972 0
M  V30 54 H 6.607992 8.598312 -23.642915 0
M  V30 55 H 5.176774 9.583831 -23.915369 0
M  V30 56 H 6.546002 7.236228 -21.311152 0
M  V30 57 H 7.096461 5.680695 -19.540191 0
M  V30 58 H 7.867942 5.079688 -17.279413 0
M  V30 59 H 3.842443 7.934253 -17.849878 0
M  V30 60 H 5.497398 7.245539 -13.821584 0
M  V30 61 H 10.980325 7.329753 -7.613994 0
M  V30 62 H 11.253299 5.650980 -7.986009 0
M  V30 63 H 9.262813 8.370283 -8.901830 0
M  V30 64 H 8.573443 6.999707 -7.545197 0
M  V30 65 H 9.293217 5.752163 -6.587563 0
M  V30 66 H 5.898567 3.272073 -10.856724 0
M  V30 67 H 6.546011 3.522915 -9.242999 0
M  V30 68 H 5.730827 4.834638 -10.061094 0
M  V30 69 H 8.768471 4.836918 -23.106868 0
M  V30 70 H 8.306492 6.252931 -22.190908 0
M  V30 71 H 8.338253 4.672161 -21.412666 0
M  V30 72 H 8.395221 3.590852 -10.896758 0
M  V30 73 H 6.515694 3.896803 -22.994817 0
M  V30 74 H 6.416087 5.502721 -23.658025 0
M  V30 75 H 6.113336 6.527041 -11.547675 0
M  V30 END ATOM
M  V30 BEGIN BOND
M  V30 1 1 8 5
M  V30 2 2 10 6
M  V30 3 1 12 5
M  V30 4 1 12 8
M  V30 5 2 14 7
M  V30 6 1 15 1
M  V30 7 1 15 12
M  V30 8 1 16 1
M  V30 9 1 16 9
M  V30 10 1 16 13
M  V30 11 1 17 3
M  V30 12 1 17 4
M  V30 13 1 19 10
M  V30 14 2 19 18
M  V30 15 1 20 2
M  V30 16 1 21 13
M  V30 17 1 21 18
M  V30 18 1 22 6
M  V30 19 2 22 21
M  V30 20 1 25 20
M  V30 21 1 26 4
M  V30 22 1 26 11
M  V30 23 1 26 24
M  V30 24 1 26 25 CFG=1
M  V30 25 1 27 3
M  V30 26 1 27 24
M  V30 27 2 28 20
M  V30 28 1 31 17
M  V30 29 1 31 29
M  V30 30 1 32 7
M  V30 31 1 32 10
M  V30 32 2 32 23
M  V30 33 1 33 14
M  V30 34 1 33 31
M  V30 35 1 34 9
M  V30 36 1 34 30
M  V30 37 1 35 23
M  V30 38 2 35 33
M  V30 39 1 36 2
M  V30 40 1 37 2
M  V30 41 1 38 2
M  V30 42 1 39 3
M  V30 43 1 40 3
M  V30 44 1 41 4
M  V30 45 1 42 4
M  V30 46 1 43 6
M  V30 47 1 44 7
M  V30 48 1 45 8
M  V30 49 1 46 8
M  V30 50 1 47 9
M  V30 51 1 48 9
M  V30 52 1 49 11
M  V30 53 1 50 11
M  V30 54 1 51 11
M  V30 55 1 12 52 CFG=1
M  V30 56 1 53 14
M  V30 57 1 54 15
M  V30 58 1 55 15
M  V30 59 1 16 56 CFG=1
M  V30 60 1 57 18
M  V30 61 1 58 19
M  V30 62 1 59 22
M  V30 63 1 60 23
M  V30 64 1 61 24
M  V30 65 1 62 24
M  V30 66 1 63 25
M  V30 67 1 64 27
M  V30 68 1 65 27
M  V30 69 1 66 29
M  V30 70 1 67 29
M  V30 71 1 68 29
M  V30 72 1 69 30
M  V30 73 1 70 30
M  V30 74 1 71 30
M  V30 75 1 31 72 CFG=3
M  V30 76 1 73 34
M  V30 77 1 74 34
M  V30 78 1 75 35
M  V30 END BOND
M  V30 END CTAB
M  END
>  <i_epik_Tot_Q>  (1) 
0

>  <i_epik_Tot_abs_Q>  (1) 
0

>  <i_i_glide_confnum>  (1) 
2474

>  <i_i_glide_lignum>  (1) 
159

>  <i_i_glide_posenum>  (1) 
356

>  <i_i_glide_rotatable_bonds>  (1) 
12

>  <i_lp_mmshare_version>  (1) 
72125

>  <i_m_source_file_index>  (1) 
88

>  <i_f3d_flags>  (1) 
0

>  <num_sample>  (1) 
100

>  <b_lp_Chiralities_Consistent>  (1) 
1

>  <r_epik_Charging_Adjusted_Penalty>  (1) 
0.99208626642465525

>  <r_epik_Ionization_Penalty>  (1) 
0.99208788217497046

>  <r_epik_Ionization_Penalty_Charging>  (1) 
0

>  <r_epik_Ionization_Penalty_Neutral>  (1) 
0.99208788217497046

>  <r_epik_State_Penalty>  (1) 
0.99208626642465525

>  <r_glide_ring_energy>  (1) 
0

>  <r_i_docking_score>  (1) 
-2.0237016482345798

>  <r_i_glide_ecoul>  (1) 
-2.0540075924424865

>  <r_i_glide_eff_state_penalty>  (1) 
0.99208626642465525

>  <r_i_glide_einternal>  (1) 
25.5777255147567

>  <r_i_glide_emodel>  (1) 
3.4224655355526981

>  <r_i_glide_emodel_strain>  (1) 
2.9537719598505277

>  <r_i_glide_energy>  (1) 
-6.5882709869148259

>  <r_i_glide_erotb>  (1) 
0.7439263771496134

>  <r_i_glide_esite>  (1) 
-0.20000000000000001

>  <r_i_glide_evdw>  (1) 
-4.5342633944723394

>  <r_i_glide_gscore>  (1) 
-3.015787914659235

>  <r_i_glide_gscore_strain>  (1) 
0

>  <r_i_glide_hbond>  (1) 
-0.32000000000000001

>  <r_i_glide_ligand_efficiency>  (1) 
-0.057820047092416567

>  <r_i_glide_ligand_efficiency_ln>  (1) 
-0.44424742542569007

>  <r_i_glide_ligand_efficiency_sa>  (1) 
-0.18913320809752157

>  <r_i_glide_lipo>  (1) 
-2.1477457890151537

>  <r_i_glide_metal>  (1) 
-0

>  <r_i_glide_rewards>  (1) 
-0.55715419420370482

>  <r_lp_Energy>  (1) 
42.125440999999995

>  <r_lp_tautomer_probability>  (1) 
1

>  <s_epik_Chemistry_Notes>  (1) 
This compound contains an acetal/aminal-like group ( X-CH(R)-Y where X, Y are N, S, or O) that may be acid/base labile, releasing an aldehyde.

>  <s_epik_cmdline>  (1) 
J2VwaWtfcHl0aG9uJywgJy1waHQnLCAnMS4wJywgJy1waCcsICc3LjQnLCAnLXRuJywgJzgnLCAnLW1hJywgJzUwMCcsICctaW1hZScsICc8aW5maWxlLm1hZT4nLCAnLW9tYWUnLCAnPG91dGZpbGUubWFlPic=

>  <s_epik_input>  (1) 
W0NIMl0xT1tDQEhdMVtDSDJdU1tDQEhdKFtDSDJdW0NIMl1bQ0gzXSlPYyhbY0hdW2NIXTIpW2NIXVtjSF1jMi1jM1tjSF1bY0hdYyhbY0hdW2NIXTMpW0NASF0oW0NIM10pTihbQ0gyXVtDSDJdW0NIMl00KVtDSDJdW0NAQF00KFtDSDNdKVtOSF1DKD1PKVtDSDNd

>  <s_glide_docking_method>  (1) 
confgen

>  <s_i_glide_gridfile>  (1) 
gpcr_drd2_6luq_protein_autoprepared_prepared

>  <s_lp_Force_Field>  (1) 
S-OPLS

>  <s_lp_Variant>  (1) 
DiffSBDD_87-3

>  <s_m_source_file>  (1) 
generated_generic_title2_ligand_DiffSBDD_2026-06-23_prepared.sdf

>  <GenAI_Model>  (1) 
DiffSBDD

>  <Protein>  (1) 
generic_title2

$$$$
DiffSBDD_61
     RDKit          3D

  0  0  0  0  0  0  0  0  0  0999 V3000
M  V30 BEGIN CTAB
M  V30 COUNTS 46 47 0 0 1
M  V30 BEGIN ATOM
M  V30 1 C 6.374511 -0.112902 -15.936494 0
M  V30 2 O 6.945934 6.010631 -14.162223 0 CHG=-1
M  V30 3 C 11.266655 8.577328 -6.735007 0
M  V30 4 O 6.910411 3.464047 -14.164510 0
M  V30 5 N 8.227275 1.561403 -16.375174 0 CFG=2 CHG=1
M  V30 6 O 11.971029 9.571948 -6.456992 0 CHG=-1
M  V30 7 C 8.668840 5.181273 -9.785816 0
M  V30 8 C 6.874017 1.340985 -15.814474 0 CFG=2
M  V30 9 P 6.979173 1.769803 -13.992092 0
M  V30 10 F 10.817599 7.990236 -10.784603 0
M  V30 11 C 9.859859 1.437100 -18.090251 0
M  V30 12 N 11.032648 8.308084 -8.047801 0
M  V30 13 O 6.072786 4.779590 -12.097892 0
M  V30 14 O 5.775581 1.263093 -13.295783 0 CHG=-1
M  V30 15 C 9.509227 6.297284 -7.780810 0
M  V30 16 O 8.628533 4.826054 -12.603538 0
M  V30 17 F 8.847284 3.307413 -19.044818 0
M  V30 18 P 7.037484 4.873476 -13.215695 0
M  V30 19 C 10.220716 7.227629 -8.596226 0
M  V30 20 C 10.142877 7.115147 -10.002966 0
M  V30 21 C 8.528946 2.967819 -16.749338 0
M  V30 22 C 8.645977 0.716662 -17.513310 0
M  V30 23 C 9.492154 2.912252 -17.946547 0 CFG=1
M  V30 24 C 9.369594 6.093422 -10.597622 0
M  V30 25 O 10.796495 7.852051 -5.839274 0
M  V30 26 C 9.292972 5.984098 -12.115695 0
M  V30 27 C 8.740135 5.281757 -8.384824 0
M  V30 28 O 8.334259 1.343134 -13.583561 0
M  V30 29 H 6.228314 -0.421806 -16.971632 0
M  V30 30 H 7.066923 -0.811603 -15.467995 0
M  V30 31 H 5.410734 -0.234110 -15.439417 0
M  V30 32 H 8.072855 4.401482 -10.237606 0
M  V30 33 H 6.173495 1.985354 -16.335797 0
M  V30 34 H 10.741761 1.217868 -17.487161 0
M  V30 35 H 10.076859 1.152370 -19.120466 0
M  V30 36 H 11.458175 8.925596 -8.721388 0
M  V30 37 H 9.536652 6.349325 -6.714359 0
M  V30 38 H 7.627055 3.519295 -17.021804 0
M  V30 39 H 8.968127 3.490956 -15.900438 0
M  V30 40 H 8.872465 -0.307370 -17.210900 0
M  V30 41 H 7.853277 0.686968 -18.262938 0
M  V30 42 H 10.365168 3.556611 -17.829837 0
M  V30 43 H 8.838022 6.891884 -12.511925 0
M  V30 44 H 10.310426 5.962791 -12.509025 0
M  V30 45 H 8.198382 4.580512 -7.769180 0
M  V30 46 H 8.833142 1.336304 -15.589876 0
M  V30 END ATOM
M  V30 BEGIN BOND
M  V30 1 1 6 3
M  V30 2 1 8 1
M  V30 3 1 8 5
M  V30 4 1 9 4
M  V30 5 1 9 8
M  V30 6 1 12 3
M  V30 7 1 14 9
M  V30 8 1 18 2
M  V30 9 1 18 4
M  V30 10 2 18 13
M  V30 11 1 18 16
M  V30 12 1 19 12
M  V30 13 2 19 15
M  V30 14 1 20 10
M  V30 15 1 20 19
M  V30 16 1 21 5
M  V30 17 1 22 5
M  V30 18 1 22 11
M  V30 19 1 23 11
M  V30 20 1 23 17
M  V30 21 1 23 21
M  V30 22 1 24 7
M  V30 23 2 24 20
M  V30 24 2 25 3
M  V30 25 1 26 16
M  V30 26 1 26 24
M  V30 27 2 27 7
M  V30 28 1 27 15
M  V30 29 2 28 9
M  V30 30 1 29 1
M  V30 31 1 30 1
M  V30 32 1 31 1
M  V30 33 1 32 7
M  V30 34 1 8 33 CFG=3
M  V30 35 1 34 11
M  V30 36 1 35 11
M  V30 37 1 36 12
M  V30 38 1 37 15
M  V30 39 1 38 21
M  V30 40 1 39 21
M  V30 41 1 40 22
M  V30 42 1 41 22
M  V30 43 1 23 42 CFG=1
M  V30 44 1 43 26
M  V30 45 1 44 26
M  V30 46 1 45 27
M  V30 47 1 5 46 CFG=1
M  V30 END BOND
M  V30 END CTAB
M  END
>  <i_epik_Tot_Q>  (1) 
-2

>  <i_epik_Tot_abs_Q>  (1) 
4

>  <i_i_glide_confnum>  (1) 
129

>  <i_i_glide_lignum>  (1) 
96

>  <i_i_glide_posenum>  (1) 
266

>  <i_i_glide_rotatable_bonds>  (1) 
9

>  <i_lp_mmshare_version>  (1) 
72125

>  <i_m_source_file_index>  (1) 
62

>  <i_f3d_flags>  (1) 
0

>  <num_sample>  (1) 
100

>  <b_lp_Chiralities_Consistent>  (1) 
1

>  <r_epik_Charging_Adjusted_Penalty>  (1) 
0.22521151081801519

>  <r_epik_Ionization_Penalty>  (1) 
0.079461215956128484

>  <r_epik_Ionization_Penalty_Charging>  (1) 
0.079461215147622277

>  <r_epik_Ionization_Penalty_Neutral>  (1) 
8.0850620194651714e-10

>  <r_epik_State_Penalty>  (1) 
0.14575029567039291

>  <r_glide_ring_energy>  (1) 
0

>  <r_i_docking_score>  (1) 
-2.0041736916200779

>  <r_i_glide_ecoul>  (1) 
2.4544297773819341

>  <r_i_glide_eff_state_penalty>  (1) 
0.14575029567039291

>  <r_i_glide_einternal>  (1) 
3.1703615940912613

>  <r_i_glide_emodel>  (1) 
-35.746557031119544

>  <r_i_glide_emodel_strain>  (1) 
0.60972699250155671

>  <r_i_glide_energy>  (1) 
-31.385789405656162

>  <r_i_glide_erotb>  (1) 
0.71514179105455389

>  <r_i_glide_esite>  (1) 
-0.0061592074386286446

>  <r_i_glide_evdw>  (1) 
-33.840219183038094

>  <r_i_glide_gscore>  (1) 
-2.149923987290471

>  <r_i_glide_gscore_strain>  (1) 
0

>  <r_i_glide_hbond>  (1) 
0

>  <r_i_glide_ligand_efficiency>  (1) 
-0.071577631843574213

>  <r_i_glide_ligand_efficiency_ln>  (1) 
-0.46262213312247913

>  <r_i_glide_ligand_efficiency_sa>  (1) 
-0.21735184748917372

>  <r_i_glide_lipo>  (1) 
-0.52914277383227504

>  <r_i_glide_metal>  (1) 
-0

>  <r_i_glide_rewards>  (1) 
-1.0059173045295065

>  <r_lp_Energy>  (1) 
8.1711899999999993

>  <s_epik_cmdline>  (1) 
J2VwaWtfcHl0aG9uJywgJy1waHQnLCAnMS4wJywgJy1waCcsICc3LjQnLCAnLXRuJywgJzgnLCAnLW1hJywgJzUwMCcsICctaW1hZScsICc8aW5maWxlLm1hZT4nLCAnLW9tYWUnLCAnPG91dGZpbGUubWFlPic=

>  <s_epik_input>  (1) 
W0NIMl0xW0NIMl1bQ0BASF0oRilbQ0gyXU4xW0NAQEhdKFtDSDNdKVtQQF0oPU8pKFtPSF0pT1tQQEBdKD1PKShbT0hdKU9bQ0gyXWMoYzJGKVtjSF1bY0hdW2NIXWMyW05IXUMoPU8pW09IXQ==

>  <s_glide_docking_method>  (1) 
confgen

>  <s_i_glide_gridfile>  (1) 
gpcr_drd2_6luq_protein_autoprepared_prepared

>  <s_lp_Force_Field>  (1) 
S-OPLS

>  <s_lp_Variant>  (1) 
DiffSBDD_61-1

>  <s_m_source_file>  (1) 
generated_generic_title2_ligand_DiffSBDD_2026-06-23_prepared.sdf

>  <GenAI_Model>  (1) 
DiffSBDD

>  <Protein>  (1) 
generic_title2

$$$$
DiffSBDD_86
     RDKit          3D

  0  0  0  0  0  0  0  0  0  0999 V3000
M  V30 BEGIN CTAB
M  V30 COUNTS 114 117 0 0 1
M  V30 BEGIN ATOM
M  V30 1 C 9.367654 5.337028 -20.867427 0
M  V30 2 C 8.053366 5.873575 -21.439340 0 CFG=1
M  V30 3 C 9.476080 4.796764 -7.987173 0
M  V30 4 C 4.000094 7.668722 -18.651039 0
M  V30 5 C 6.320449 -0.037693 -18.306300 0 CFG=2
M  V30 6 C 7.683079 4.025995 -12.455857 0
M  V30 7 O 8.533119 0.535471 -19.087397 0
M  V30 8 C 8.348273 0.099033 -16.720381 0 CFG=2
M  V30 9 O 11.261890 0.332505 -19.197672 0
M  V30 10 C 9.221374 -0.052335 -17.993203 0 CFG=2
M  V30 11 C 4.977344 -0.752818 -18.560240 0
M  V30 12 O 8.279611 7.095374 -22.112187 0
M  V30 13 N 9.232205 5.756576 -10.217268 0
M  V30 14 C 4.725699 3.318019 -20.554222 0
M  V30 15 C 8.606188 2.869612 -20.554342 0 CFG=1
M  V30 16 C 7.069844 3.249523 -14.654133 0 CFG=2
M  V30 17 O 8.137884 2.189329 -23.211637 0
M  V30 18 C 4.458454 7.995112 -15.984766 0
M  V30 19 C 7.289880 -0.003904 -19.537450 0 CFG=1
M  V30 20 C 7.557453 -1.446614 -20.088079 0
M  V30 21 C 7.129269 2.423352 -20.488966 0 CFG=2
M  V30 22 O 7.775402 8.279377 -13.582179 0
M  V30 23 O 8.868179 3.703662 -12.517495 0
M  V30 24 N 8.175820 7.196746 -11.658466 0 CHG=1
M  V30 25 C 6.746296 0.956690 -20.629406 0
M  V30 26 C 7.007748 -0.610505 -17.043785 0
M  V30 27 C 9.400918 7.336673 -7.478107 0
M  V30 28 O 6.732075 3.642278 -13.322357 0
M  V30 29 P 7.701727 3.084113 -22.102485 0 CFG=1
M  V30 30 C 5.676819 7.694455 -16.756705 0 CFG=2
M  V30 31 C 7.349057 4.889698 -22.386079 0
M  V30 32 C 8.610083 -1.528504 -21.207137 0
M  V30 33 C 4.363878 7.172299 -17.272146 0 CFG=2
M  V30 34 F 8.175282 9.590119 -13.183726 0
M  V30 35 C 6.792023 6.789115 -16.293656 0
M  V30 36 C 5.980587 0.515844 -21.651096 0
M  V30 37 C 6.075864 3.323703 -19.843022 0
M  V30 38 C 8.228234 6.005742 -11.070195 0
M  V30 39 C 9.162783 4.143618 -19.921027 0
M  V30 40 C 7.767369 1.871037 -14.782762 0 CFG=2
M  V30 41 C 7.157095 4.953960 -11.359897 0
M  V30 42 C 9.368694 4.531636 -9.476227 0
M  V30 43 C 10.596458 0.644389 -17.994334 0
M  V30 44 C 8.172960 1.579293 -16.254077 0
M  V30 45 O 6.802995 0.928238 -14.366069 0
M  V30 46 C 6.389488 5.521006 -15.597483 0
M  V30 47 C 7.546617 4.493661 -15.447672 0
M  V30 48 C 8.685019 5.979748 -7.429723 0
M  V30 49 C 7.139252 7.591440 -12.573617 0
M  V30 50 H 9.855555 6.134566 -20.305143 0
M  V30 51 H 10.055001 5.067664 -21.670637 0
M  V30 52 H 7.389712 6.117805 -20.610554 0
M  V30 53 H 8.974978 3.916092 -7.585022 0
M  V30 54 H 10.519541 4.846267 -7.690767 0
M  V30 55 H 4.619200 8.508936 -18.961450 0
M  V30 56 H 4.175466 6.875268 -19.378006 0
M  V30 57 H 2.964116 7.991409 -18.673079 0
M  V30 58 H 6.038511 0.986110 -18.078412 0
M  V30 59 H 8.831119 -0.456569 -15.916302 0
M  V30 60 H 10.648272 0.489588 -19.901874 0
M  V30 61 H 9.403272 -1.113331 -18.165140 0
M  V30 62 H 5.111926 -1.819502 -18.741964 0
M  V30 63 H 4.316112 -0.659242 -17.696295 0
M  V30 64 H 4.447730 -0.325863 -19.411569 0
M  V30 65 H 8.873355 6.947417 -22.833832 0
M  V30 66 H 9.921390 6.470646 -10.048104 0
M  V30 67 H 4.098606 4.128949 -20.189754 0
M  V30 68 H 4.824280 3.445455 -21.630998 0
M  V30 69 H 4.215842 2.368566 -20.383405 0
M  V30 70 H 9.367294 2.102953 -20.668475 0
M  V30 71 H 6.175322 3.029346 -15.174239 0
M  V30 72 H 4.577061 7.590553 -14.994846 0
M  V30 73 H 4.061476 8.996334 -15.984758 0
M  V30 74 H 7.872170 -2.116862 -19.291133 0
M  V30 75 H 6.637533 -1.904123 -20.449341 0
M  V30 76 H 6.313502 -0.573784 -16.207831 0
M  V30 77 H 7.195656 -1.676350 -17.182863 0
M  V30 78 H 8.819899 8.085260 -6.938991 0
M  V30 79 H 10.389818 7.289525 -7.022668 0
M  V30 80 H 9.524933 7.706756 -8.493445 0
M  V30 81 H 6.032083 8.614911 -17.168524 0
M  V30 82 H 6.274353 5.063219 -22.386648 0
M  V30 83 H 7.677585 5.071939 -23.410047 0
M  V30 84 H 8.726386 -2.558183 -21.548327 0
M  V30 85 H 8.332353 -0.925070 -22.070993 0
M  V30 86 H 9.585454 -1.188329 -20.862374 0
M  V30 87 H 4.006659 6.164784 -17.077755 0
M  V30 88 H 7.375231 7.341554 -15.584868 0
M  V30 89 H 7.375383 6.529881 -17.176887 0
M  V30 90 H 5.610988 1.194869 -22.403977 0
M  V30 91 H 5.714766 -0.523735 -21.746420 0
M  V30 92 H 5.944968 3.044147 -18.800275 0
M  V30 93 H 6.427680 4.347670 -19.808948 0
M  V30 94 H 8.533853 4.433850 -19.080090 0
M  V30 95 H 10.124689 3.890410 -19.474302 0
M  V30 96 H 8.602376 1.769739 -14.099493 0
M  V30 97 H 6.223020 5.416879 -11.672646 0
M  V30 98 H 6.848991 4.390257 -10.482706 0
M  V30 99 H 8.460117 3.990224 -9.625352 0
M  V30 100 H 10.175244 3.912766 -9.850050 0
M  V30 101 H 11.226554 0.292067 -17.183852 0
M  V30 102 H 10.522146 1.729474 -17.931046 0
M  V30 103 H 9.101280 2.125348 -16.390774 0
M  V30 104 H 7.475944 2.063808 -16.933012 0
M  V30 105 H 6.524027 1.144197 -13.488189 0
M  V30 106 H 5.606156 5.190388 -16.239928 0
M  V30 107 H 5.897997 5.718150 -14.649373 0
M  V30 108 H 8.404761 4.955482 -14.959518 0
M  V30 109 H 7.888233 4.217630 -16.444257 0
M  V30 110 H 7.775257 5.990386 -8.007229 0
M  V30 111 H 8.390558 5.789824 -6.397298 0
M  V30 112 H 6.634013 6.758816 -13.036480 0
M  V30 113 H 6.399034 8.195322 -12.047774 0
M  V30 114 H 8.880079 7.885488 -11.436010 0
M  V30 END ATOM
M  V30 BEGIN BOND
M  V30 1 1 2 1
M  V30 2 1 10 7
M  V30 3 1 10 8
M  V30 4 1 11 5
M  V30 5 1 12 2
M  V30 6 1 19 5
M  V30 7 1 19 7
M  V30 8 1 19 20 CFG=3
M  V30 9 1 21 15
M  V30 10 2 23 6
M  V30 11 1 25 19
M  V30 12 1 25 21
M  V30 13 1 26 5
M  V30 14 1 26 8
M  V30 15 1 28 6
M  V30 16 1 28 16
M  V30 17 1 29 15
M  V30 18 2 29 17
M  V30 19 1 29 21
M  V30 20 1 30 18
M  V30 21 1 31 2
M  V30 22 1 29 31 CFG=3
M  V30 23 1 32 20
M  V30 24 1 33 4
M  V30 25 1 33 18
M  V30 26 1 33 30
M  V30 27 1 34 22
M  V30 28 1 35 30
M  V30 29 2 36 25
M  V30 30 1 37 14
M  V30 31 1 21 37 CFG=1
M  V30 32 1 38 13
M  V30 33 2 38 24
M  V30 34 1 39 1
M  V30 35 1 39 15
M  V30 36 1 40 16
M  V30 37 1 41 6
M  V30 38 1 41 38
M  V30 39 1 42 3
M  V30 40 1 42 13
M  V30 41 1 43 9
M  V30 42 1 43 10
M  V30 43 1 44 8
M  V30 44 1 44 40
M  V30 45 1 45 40
M  V30 46 1 46 35
M  V30 47 1 47 16
M  V30 48 1 47 46
M  V30 49 1 48 3
M  V30 50 1 48 27
M  V30 51 1 49 22
M  V30 52 1 49 24
M  V30 53 1 50 1
M  V30 54 1 51 1
M  V30 55 1 2 52 CFG=1
M  V30 56 1 53 3
M  V30 57 1 54 3
M  V30 58 1 55 4
M  V30 59 1 56 4
M  V30 60 1 57 4
M  V30 61 1 5 58 CFG=1
M  V30 62 1 8 59 CFG=1
M  V30 63 1 60 9
M  V30 64 1 10 61 CFG=3
M  V30 65 1 62 11
M  V30 66 1 63 11
M  V30 67 1 64 11
M  V30 68 1 65 12
M  V30 69 1 66 13
M  V30 70 1 67 14
M  V30 71 1 68 14
M  V30 72 1 69 14
M  V30 73 1 15 70 CFG=3
M  V30 74 1 16 71 CFG=3
M  V30 75 1 72 18
M  V30 76 1 73 18
M  V30 77 1 74 20
M  V30 78 1 75 20
M  V30 79 1 76 26
M  V30 80 1 77 26
M  V30 81 1 78 27
M  V30 82 1 79 27
M  V30 83 1 80 27
M  V30 84 1 30 81 CFG=3
M  V30 85 1 82 31
M  V30 86 1 83 31
M  V30 87 1 84 32
M  V30 88 1 85 32
M  V30 89 1 86 32
M  V30 90 1 33 87 CFG=1
M  V30 91 1 88 35
M  V30 92 1 89 35
M  V30 93 1 90 36
M  V30 94 1 91 36
M  V30 95 1 92 37
M  V30 96 1 93 37
M  V30 97 1 94 39
M  V30 98 1 95 39
M  V30 99 1 40 96 CFG=1
M  V30 100 1 97 41
M  V30 101 1 98 41
M  V30 102 1 99 42
M  V30 103 1 100 42
M  V30 104 1 101 43
M  V30 105 1 102 43
M  V30 106 1 103 44
M  V30 107 1 104 44
M  V30 108 1 105 45
M  V30 109 1 106 46
M  V30 110 1 107 46
M  V30 111 1 108 47
M  V30 112 1 109 47
M  V30 113 1 110 48
M  V30 114 1 111 48
M  V30 115 1 112 49
M  V30 116 1 113 49
M  V30 117 1 114 24
M  V30 END BOND
M  V30 END CTAB
M  END
>  <i_epik_Tot_Q>  (1) 
1

>  <i_epik_Tot_abs_Q>  (1) 
1

>  <i_i_glide_confnum>  (1) 
8633

>  <i_i_glide_lignum>  (1) 
154

>  <i_i_glide_posenum>  (1) 
126

>  <i_i_glide_rotatable_bonds>  (1) 
25

>  <i_lp_mmshare_version>  (1) 
72125

>  <i_m_source_file_index>  (1) 
87

>  <i_f3d_flags>  (1) 
0

>  <num_sample>  (1) 
100

>  <b_lp_Chiralities_Consistent>  (1) 
1

>  <r_epik_Charging_Adjusted_Penalty>  (1) 
0.16001273794586685

>  <r_epik_Ionization_Penalty>  (1) 
0.080843455150849161

>  <r_epik_Ionization_Penalty_Charging>  (1) 
0.080842825825004877

>  <r_epik_Ionization_Penalty_Neutral>  (1) 
6.2932584428919515e-07

>  <r_epik_State_Penalty>  (1) 
0.079169912120861954

>  <r_glide_ring_energy>  (1) 
0

>  <r_i_docking_score>  (1) 
-1.9919604253728409

>  <r_i_glide_ecoul>  (1) 
-0.72119967660290851

>  <r_i_glide_eff_state_penalty>  (1) 
0.079169912120861954

>  <r_i_glide_einternal>  (1) 
3.2736699957665749

>  <r_i_glide_emodel>  (1) 
-3.5292804061953902

>  <r_i_glide_emodel_strain>  (1) 
7.2205913563629451

>  <r_i_glide_energy>  (1) 
-7.8245856382299133

>  <r_i_glide_erotb>  (1) 
0.57386026422142977

>  <r_i_glide_esite>  (1) 
-0.312175536483978

>  <r_i_glide_evdw>  (1) 
-7.103385961627005

>  <r_i_glide_gscore>  (1) 
-2.0711303374937029

>  <r_i_glide_gscore_strain>  (1) 
0.80514783909073628

>  <r_i_glide_hbond>  (1) 
0

>  <r_i_glide_ligand_efficiency>  (1) 
-0.040652253579037567

>  <r_i_glide_ligand_efficiency_ln>  (1) 
-0.40720228953263021

>  <r_i_glide_ligand_efficiency_sa>  (1) 
-0.14875902364707397

>  <r_i_glide_lipo>  (1) 
-2.2506309200259316

>  <r_i_glide_metal>  (1) 
-0

>  <r_i_glide_rewards>  (1) 
-0.42398273472417258

>  <r_lp_Energy>  (1) 
45.628945999999999

>  <s_epik_Chemistry_Notes>  (1) 
This compound has an ester and may undergo hydrolysis at high or low pH. This compound has an imine and may undergo hydrolysis. This compound contains an acetal/aminal-like group ( X-CH(R)-Y where X, Y are N, S, or O) that may be acid/base labile, releasing an aldehyde.

>  <s_epik_cmdline>  (1) 
J2VwaWtfcHl0aG9uJywgJy1waHQnLCAnMS4wJywgJy1waCcsICc3LjQnLCAnLXRuJywgJzgnLCAnLW1hJywgJzUwMCcsICctaW1hZScsICc8aW5maWxlLm1hZT4nLCAnLW9tYWUnLCAnPG91dGZpbGUubWFlPic=

>  <s_epik_input>  (1) 
W09IXVtDQEBIXShbQ0gyXTEpW0NIMl1bQ0gyXVtDQEhdKFAxMj1PKVtDQEBdMihbQ0gyXVtDSDNdKUMoPVtDSDJdKVtDQF0zKFtDSDJdW0NIM10pW0NAQEhdKFtDSDNdKVtDSDJdW0NAQEhdKFtDQEBIXShPMylbQ0gyXVtPSF0pW0NIMl1bQ0BIXShbT0hdKVtDQEhdKFtDSDJdW0NIMl1bQ0gyXVtDQEBIXTRbQ0gyXVtDQEhdNFtDSDNdKU9DKD1PKVtDSDJdQyg9TlxbQ0gyXU9GKS9bTkhdW0NIMl1bQ0gyXVtDSDJdW0NIM10=

>  <s_glide_docking_method>  (1) 
confgen

>  <s_i_glide_gridfile>  (1) 
gpcr_drd2_6luq_protein_autoprepared_prepared

>  <s_lp_Force_Field>  (1) 
S-OPLS

>  <s_lp_Variant>  (1) 
DiffSBDD_86-2

>  <s_m_source_file>  (1) 
generated_generic_title2_ligand_DiffSBDD_2026-06-23_prepared.sdf

>  <GenAI_Model>  (1) 
DiffSBDD

>  <Protein>  (1) 
generic_title2

$$$$
DiffSBDD_87
     RDKit          3D

  0  0  0  0  0  0  0  0  0  0999 V3000
M  V30 BEGIN CTAB
M  V30 COUNTS 75 78 0 0 1
M  V30 BEGIN ATOM
M  V30 1 S 9.150440 5.400681 -18.524408 0
M  V30 2 C 12.449759 8.980647 -1.500020 0
M  V30 3 C 12.200753 7.484904 -7.648709 0
M  V30 4 C 11.170301 7.743556 -5.597928 0
M  V30 5 O 12.274537 4.649656 -19.704130 0
M  V30 6 C 7.323665 4.283206 -13.135897 0
M  V30 7 C 8.263060 4.790240 -10.358548 0
M  V30 8 C 12.665725 3.350840 -19.240783 0
M  V30 9 C 6.556393 5.893751 -17.611770 0
M  V30 10 C 8.469118 5.072828 -12.849884 0
M  V30 11 C 10.791724 10.153753 -5.718044 0
M  V30 12 C 11.587757 4.145387 -18.551075 0 CFG=2
M  V30 13 O 7.617003 3.831331 -16.793601 0
M  V30 14 C 8.646342 5.099994 -9.047842 0
M  V30 15 C 10.108533 3.876168 -18.735215 0
M  V30 16 C 7.565595 4.755862 -17.890518 0 CFG=2
M  V30 17 N 10.876799 7.572489 -7.038549 0
M  V30 18 C 9.034787 5.024361 -15.234443 0
M  V30 19 C 9.318340 5.425997 -13.919253 0
M  V30 20 C 12.489732 8.550099 -2.956306 0
M  V30 21 C 7.894704 4.251391 -15.509158 0
M  V30 22 C 7.043857 3.877922 -14.456863 0
M  V30 23 C 9.673369 6.577969 -11.198632 0
M  V30 24 C 13.046327 9.464394 -6.175565 0
M  V30 25 N 11.971704 9.413836 -3.852830 0
M  V30 26 C 11.815881 9.135412 -5.297022 0 CFG=2
M  V30 27 C 12.865292 8.863453 -7.596908 0
M  V30 28 O 12.959789 7.462418 -3.256962 0
M  V30 29 C 8.746511 6.476266 -6.414969 0
M  V30 30 C 5.400048 5.986031 -19.924592 0
M  V30 31 C 9.982955 6.431354 -7.335371 0 CFG=1
M  V30 32 C 8.797599 5.489213 -11.456744 0
M  V30 33 C 9.538804 6.153501 -8.791760 0
M  V30 34 C 6.167592 6.748828 -18.834868 0
M  V30 35 C 10.023020 6.922477 -9.875428 0
M  V30 36 H 11.701342 8.390241 -0.974205 0
M  V30 37 H 13.416412 8.805965 -1.028424 0
M  V30 38 H 12.175413 10.028107 -1.390478 0
M  V30 39 H 12.795043 6.712120 -7.185026 0
M  V30 40 H 12.187482 7.190223 -8.687115 0
M  V30 41 H 10.269412 7.711287 -4.994852 0
M  V30 42 H 11.775408 6.903853 -5.258658 0
M  V30 43 H 6.656294 3.988717 -12.342732 0
M  V30 44 H 7.584970 3.982818 -10.521947 0
M  V30 45 H 13.656936 3.312304 -18.791510 0
M  V30 46 H 12.392031 2.533939 -19.905444 0
M  V30 47 H 5.645507 5.478936 -17.184908 0
M  V30 48 H 6.965981 6.550667 -16.843926 0
M  V30 49 H 10.550236 9.990224 -6.760207 0
M  V30 50 H 9.878411 9.990197 -5.185010 0
M  V30 51 H 11.131068 11.175135 -5.549667 0
M  V30 52 H 11.860340 4.635103 -17.617690 0
M  V30 53 H 8.258584 4.509712 -8.234302 0
M  V30 54 H 9.802949 3.147404 -17.984916 0
M  V30 55 H 9.911688 3.444185 -19.716631 0
M  V30 56 H 7.166039 4.152125 -18.704244 0
M  V30 57 H 9.708552 5.299945 -16.023936 0
M  V30 58 H 10.211995 5.990226 -13.727853 0
M  V30 59 H 6.175403 3.275811 -14.659746 0
M  V30 60 H 10.077535 7.151655 -12.016743 0
M  V30 61 H 13.985636 9.190229 -5.703335 0
M  V30 62 H 13.167894 10.539022 -6.281183 0
M  V30 63 H 11.611088 10.292817 -3.514804 0
M  V30 64 H 13.806722 8.842705 -8.137992 0
M  V30 65 H 12.212906 9.520745 -8.178599 0
M  V30 66 H 7.936987 5.805723 -6.684798 0
M  V30 67 H 9.025830 6.145886 -5.419351 0
M  V30 68 H 8.313539 7.477136 -6.385038 0
M  V30 69 H 5.054534 6.669824 -20.698952 0
M  V30 70 H 6.027613 5.238898 -20.409222 0
M  V30 71 H 4.527149 5.479585 -19.516760 0
M  V30 72 H 10.548619 5.544356 -7.054906 0
M  V30 73 H 5.544440 7.575014 -18.490529 0
M  V30 74 H 7.054379 7.206083 -19.272622 0
M  V30 75 H 10.675005 7.758417 -9.706379 0
M  V30 END ATOM
M  V30 BEGIN BOND
M  V30 1 1 8 5
M  V30 2 2 10 6
M  V30 3 1 12 5
M  V30 4 1 12 8
M  V30 5 2 14 7
M  V30 6 1 15 1
M  V30 7 1 15 12
M  V30 8 1 16 1
M  V30 9 1 16 9
M  V30 10 1 16 13
M  V30 11 1 17 3
M  V30 12 1 17 4
M  V30 13 1 19 10
M  V30 14 2 19 18
M  V30 15 1 20 2
M  V30 16 1 21 13
M  V30 17 1 21 18
M  V30 18 1 22 6
M  V30 19 2 22 21
M  V30 20 1 25 20
M  V30 21 1 26 4
M  V30 22 1 26 11
M  V30 23 1 26 24
M  V30 24 1 26 25 CFG=1
M  V30 25 1 27 3
M  V30 26 1 27 24
M  V30 27 2 28 20
M  V30 28 1 31 17
M  V30 29 1 31 29
M  V30 30 1 32 7
M  V30 31 1 32 10
M  V30 32 2 32 23
M  V30 33 1 33 14
M  V30 34 1 33 31
M  V30 35 1 34 9
M  V30 36 1 34 30
M  V30 37 1 35 23
M  V30 38 2 35 33
M  V30 39 1 36 2
M  V30 40 1 37 2
M  V30 41 1 38 2
M  V30 42 1 39 3
M  V30 43 1 40 3
M  V30 44 1 41 4
M  V30 45 1 42 4
M  V30 46 1 43 6
M  V30 47 1 44 7
M  V30 48 1 45 8
M  V30 49 1 46 8
M  V30 50 1 47 9
M  V30 51 1 48 9
M  V30 52 1 49 11
M  V30 53 1 50 11
M  V30 54 1 51 11
M  V30 55 1 12 52 CFG=1
M  V30 56 1 53 14
M  V30 57 1 54 15
M  V30 58 1 55 15
M  V30 59 1 16 56 CFG=3
M  V30 60 1 57 18
M  V30 61 1 58 19
M  V30 62 1 59 22
M  V30 63 1 60 23
M  V30 64 1 61 24
M  V30 65 1 62 24
M  V30 66 1 63 25
M  V30 67 1 64 27
M  V30 68 1 65 27
M  V30 69 1 66 29
M  V30 70 1 67 29
M  V30 71 1 68 29
M  V30 72 1 69 30
M  V30 73 1 70 30
M  V30 74 1 71 30
M  V30 75 1 31 72 CFG=1
M  V30 76 1 73 34
M  V30 77 1 74 34
M  V30 78 1 75 35
M  V30 END BOND
M  V30 END CTAB
M  END
>  <i_epik_Tot_Q>  (1) 
0

>  <i_epik_Tot_abs_Q>  (1) 
0

>  <i_i_glide_confnum>  (1) 
2645

>  <i_i_glide_lignum>  (1) 
159

>  <i_i_glide_posenum>  (1) 
107

>  <i_i_glide_rotatable_bonds>  (1) 
12

>  <i_lp_mmshare_version>  (1) 
72125

>  <i_m_source_file_index>  (1) 
88

>  <i_f3d_flags>  (1) 
0

>  <num_sample>  (1) 
100

>  <b_lp_Chiralities_Consistent>  (1) 
1

>  <r_epik_Charging_Adjusted_Penalty>  (1) 
0.99208626642465525

>  <r_epik_Ionization_Penalty>  (1) 
0.99208788217497046

>  <r_epik_Ionization_Penalty_Charging>  (1) 
0

>  <r_epik_Ionization_Penalty_Neutral>  (1) 
0.99208788217497046

>  <r_epik_State_Penalty>  (1) 
0.99208626642465525

>  <r_glide_ring_energy>  (1) 
1.97859153209984

>  <r_i_docking_score>  (1) 
-1.9744523278330837

>  <r_i_glide_ecoul>  (1) 
1.0944546317128838

>  <r_i_glide_eff_state_penalty>  (1) 
0.99208626642465525

>  <r_i_glide_einternal>  (1) 
17.483801691857018

>  <r_i_glide_emodel>  (1) 
-16.480058879978603

>  <r_i_glide_emodel_strain>  (1) 
7.8404383224500549

>  <r_i_glide_energy>  (1) 
-27.424104609198945

>  <r_i_glide_erotb>  (1) 
0.7439263771496134

>  <r_i_glide_esite>  (1) 
0

>  <r_i_glide_evdw>  (1) 
-28.518559240911831

>  <r_i_glide_gscore>  (1) 
-2.9665385942577389

>  <r_i_glide_gscore_strain>  (1) 
0.96010958061251372

>  <r_i_glide_hbond>  (1) 
0

>  <r_i_glide_ligand_efficiency>  (1) 
-0.056412923652373818

>  <r_i_glide_ligand_efficiency_ln>  (1) 
-0.43343610656778625

>  <r_i_glide_ligand_efficiency_sa>  (1) 
-0.18453041401852108

>  <r_i_glide_lipo>  (1) 
-2.8441314428458959

>  <r_i_glide_metal>  (1) 
-0

>  <r_i_glide_rewards>  (1) 
-0.56468334188531177

>  <r_lp_Energy>  (1) 
42.125440999999995

>  <r_lp_tautomer_probability>  (1) 
1

>  <s_epik_Chemistry_Notes>  (1) 
This compound contains an acetal/aminal-like group ( X-CH(R)-Y where X, Y are N, S, or O) that may be acid/base labile, releasing an aldehyde.

>  <s_epik_cmdline>  (1) 
J2VwaWtfcHl0aG9uJywgJy1waHQnLCAnMS4wJywgJy1waCcsICc3LjQnLCAnLXRuJywgJzgnLCAnLW1hJywgJzUwMCcsICctaW1hZScsICc8aW5maWxlLm1hZT4nLCAnLW9tYWUnLCAnPG91dGZpbGUubWFlPic=

>  <s_epik_input>  (1) 
W0NIMl0xT1tDQEhdMVtDSDJdU1tDQEhdKFtDSDJdW0NIMl1bQ0gzXSlPYyhbY0hdW2NIXTIpW2NIXVtjSF1jMi1jM1tjSF1bY0hdYyhbY0hdW2NIXTMpW0NASF0oW0NIM10pTihbQ0gyXVtDSDJdW0NIMl00KVtDSDJdW0NAQF00KFtDSDNdKVtOSF1DKD1PKVtDSDNd

>  <s_glide_docking_method>  (1) 
confgen

>  <s_i_glide_gridfile>  (1) 
gpcr_drd2_6luq_protein_autoprepared_prepared

>  <s_lp_Force_Field>  (1) 
S-OPLS

>  <s_lp_Variant>  (1) 
DiffSBDD_87-3

>  <s_m_source_file>  (1) 
generated_generic_title2_ligand_DiffSBDD_2026-06-23_prepared.sdf

>  <GenAI_Model>  (1) 
DiffSBDD

>  <Protein>  (1) 
generic_title2

$$$$
DiffSBDD_43
     RDKit          3D

  0  0  0  0  0  0  0  0  0  0999 V3000
M  V30 BEGIN CTAB
M  V30 COUNTS 73 80 0 0 1
M  V30 BEGIN ATOM
M  V30 1 C 8.679883 0.101001 -17.917709 0 CFG=1
M  V30 2 C 7.243470 0.374761 -17.534436 0 CFG=2
M  V30 3 C 7.223006 -1.219710 -19.404159 0 CFG=1
M  V30 4 C 7.395781 -5.118274 -21.985046 0
M  V30 5 C 12.216508 1.745764 -17.918752 0
M  V30 6 C 11.861240 3.043701 -18.639045 0
M  V30 7 C 8.594474 -0.509297 -19.335682 0
M  V30 8 S 15.839714 7.996239 -18.384965 0
M  V30 9 C 14.307316 5.665910 -18.728747 0 CFG=1
M  V30 10 C 14.340449 7.033282 -18.058000 0 CFG=1
M  V30 11 C 6.974528 -6.011619 -19.525117 0
M  V30 12 C 14.077213 4.717101 -16.374221 0
M  V30 13 C 7.309285 -2.716682 -19.037332 0
M  V30 14 C 14.684591 4.527305 -17.775895 0 CFG=1
M  V30 15 C 13.845879 8.476345 -20.251415 0
M  V30 16 C 8.123892 -5.037345 -19.659418 0 CFG=1
M  V30 17 N 12.944527 3.808104 -19.098706 0
M  V30 18 C 7.797957 -5.958136 -20.795083 0 CFG=2
M  V30 19 O 13.790049 7.084681 -16.745790 0
M  V30 20 C 10.583724 3.418008 -18.843037 0
M  V30 21 C 7.120934 -3.711474 -21.425728 0
M  V30 22 C 8.591980 3.596436 -17.401697 0
M  V30 23 C 14.356332 6.129631 -15.857094 0
M  V30 24 C 12.935730 5.252605 -19.234869 0
M  V30 25 C 9.709896 1.252325 -17.701587 0 CFG=1
M  V30 26 C 11.102515 0.720113 -18.102322 0
M  V30 27 C 14.106100 8.354482 -18.764788 0 CFG=2
M  V30 28 C 6.361872 -0.461286 -18.413803 0 CFG=2
M  V30 29 C 6.237774 1.042313 -18.451558 0
M  V30 30 F 8.208655 4.679184 -18.080522 0
M  V30 31 O 14.112428 3.378368 -18.383410 0
M  V30 32 F 7.502182 3.054392 -16.871596 0
M  V30 33 F 9.376974 3.990148 -16.397951 0
M  V30 34 C 7.942937 -3.607817 -20.123991 0 CFG=1
M  V30 35 C 9.364868 2.636600 -18.352569 0 CFG=2
M  V30 36 H 8.991200 -0.713896 -17.261327 0
M  V30 37 H 7.030330 0.389974 -16.467075 0
M  V30 38 H 6.784270 -1.110906 -20.396595 0
M  V30 39 H 6.527365 -5.543404 -22.489297 0
M  V30 40 H 8.225172 -5.090562 -22.692809 0
M  V30 41 H 13.135501 1.294300 -18.294226 0
M  V30 42 H 12.364649 1.961972 -16.859842 0
M  V30 43 H 8.626110 0.279613 -20.087041 0
M  V30 44 H 9.427830 -1.178129 -19.546204 0
M  V30 45 H 14.995011 5.654005 -19.575522 0
M  V30 46 H 5.961105 -5.614839 -19.554920 0
M  V30 47 H 7.117277 -6.866760 -18.867872 0
M  V30 48 H 12.997943 4.559988 -16.394207 0
M  V30 49 H 14.481425 3.973359 -15.687090 0
M  V30 50 H 7.869391 -2.825797 -18.107192 0
M  V30 51 H 6.309145 -3.095075 -18.820805 0
M  V30 52 H 15.767075 4.421875 -17.700151 0
M  V30 53 H 12.777095 8.388893 -20.446870 0
M  V30 54 H 14.181648 9.450013 -20.610132 0
M  V30 55 H 14.367954 7.700220 -20.810883 0
M  V30 56 H 9.008019 -5.237513 -19.057284 0
M  V30 57 H 8.462971 -6.796783 -20.993756 0
M  V30 58 H 10.378194 4.338089 -19.370163 0
M  V30 59 H 6.057095 -3.618047 -21.202772 0
M  V30 60 H 7.371756 -2.925683 -22.138904 0
M  V30 61 H 13.915596 6.264961 -14.869072 0
M  V30 62 H 15.428650 6.289833 -15.759845 0
M  V30 63 H 12.766320 5.558710 -20.267023 0
M  V30 64 H 12.151818 5.684433 -18.610888 0
M  V30 65 H 9.754021 1.435001 -16.629222 0
M  V30 66 H 11.099137 0.427430 -19.152793 0
M  V30 67 H 11.341913 -0.180742 -17.535718 0
M  V30 68 H 13.776144 9.190236 -18.155787 0
M  V30 69 H 5.536215 -1.006050 -17.958945 0
M  V30 70 H 6.598490 1.557675 -19.338341 0
M  V30 71 H 5.375470 1.497845 -17.975012 0
M  V30 72 H 8.933888 -3.236609 -20.384555 0
M  V30 73 H 8.758245 2.459499 -19.239057 0
M  V30 END ATOM
M  V30 BEGIN BOND
M  V30 1 1 2 1
M  V30 2 1 6 5
M  V30 3 1 7 1
M  V30 4 1 7 3
M  V30 5 1 10 8
M  V30 6 1 10 9
M  V30 7 1 13 3
M  V30 8 1 14 9
M  V30 9 1 14 12
M  V30 10 1 16 11
M  V30 11 1 17 6
M  V30 12 1 18 4
M  V30 13 1 18 11
M  V30 14 1 18 16
M  V30 15 1 10 19 CFG=1
M  V30 16 2 20 6
M  V30 17 1 21 4
M  V30 18 1 23 12
M  V30 19 1 23 19
M  V30 20 1 24 9
M  V30 21 1 24 17
M  V30 22 1 25 1
M  V30 23 1 26 5
M  V30 24 1 26 25
M  V30 25 1 27 8
M  V30 26 1 27 10
M  V30 27 1 27 15
M  V30 28 1 28 2
M  V30 29 1 28 3
M  V30 30 1 29 2
M  V30 31 1 29 28
M  V30 32 1 30 22
M  V30 33 1 31 14
M  V30 34 1 31 17
M  V30 35 1 32 22
M  V30 36 1 33 22
M  V30 37 1 34 13
M  V30 38 1 34 16
M  V30 39 1 34 21
M  V30 40 1 35 20
M  V30 41 1 35 22
M  V30 42 1 35 25
M  V30 43 1 1 36 CFG=1
M  V30 44 1 2 37 CFG=1
M  V30 45 1 3 38 CFG=3
M  V30 46 1 39 4
M  V30 47 1 40 4
M  V30 48 1 41 5
M  V30 49 1 42 5
M  V30 50 1 43 7
M  V30 51 1 44 7
M  V30 52 1 9 45 CFG=3
M  V30 53 1 46 11
M  V30 54 1 47 11
M  V30 55 1 48 12
M  V30 56 1 49 12
M  V30 57 1 50 13
M  V30 58 1 51 13
M  V30 59 1 14 52 CFG=1
M  V30 60 1 53 15
M  V30 61 1 54 15
M  V30 62 1 55 15
M  V30 63 1 16 56 CFG=1
M  V30 64 1 18 57 CFG=3
M  V30 65 1 58 20
M  V30 66 1 59 21
M  V30 67 1 60 21
M  V30 68 1 61 23
M  V30 69 1 62 23
M  V30 70 1 63 24
M  V30 71 1 64 24
M  V30 72 1 25 65 CFG=1
M  V30 73 1 66 26
M  V30 74 1 67 26
M  V30 75 1 27 68 CFG=1
M  V30 76 1 28 69 CFG=1
M  V30 77 1 70 29
M  V30 78 1 71 29
M  V30 79 1 34 72 CFG=3
M  V30 80 1 35 73 CFG=3
M  V30 END BOND
M  V30 END CTAB
M  END
>  <i_epik_Tot_Q>  (1) 
0

>  <i_epik_Tot_abs_Q>  (1) 
0

>  <i_i_glide_confnum>  (1) 
59

>  <i_i_glide_lignum>  (1) 
70

>  <i_i_glide_posenum>  (1) 
111

>  <i_i_glide_rotatable_bonds>  (1) 
5

>  <i_lp_mmshare_version>  (1) 
72125

>  <i_m_source_file_index>  (1) 
44

>  <i_f3d_flags>  (1) 
0

>  <num_sample>  (1) 
100

>  <b_lp_Chiralities_Consistent>  (1) 
1

>  <r_epik_Charging_Adjusted_Penalty>  (1) 
0

>  <r_epik_Ionization_Penalty>  (1) 
0.0012510015798316548

>  <r_epik_Ionization_Penalty_Charging>  (1) 
0

>  <r_epik_Ionization_Penalty_Neutral>  (1) 
0.0012510015798316548

>  <r_epik_State_Penalty>  (1) 
-0

>  <r_glide_ring_energy>  (1) 
1.7881069195932777

>  <r_i_docking_score>  (1) 
-1.9693422663032443

>  <r_i_glide_ecoul>  (1) 
-0.22402514928441264

>  <r_i_glide_eff_state_penalty>  (1) 
-0

>  <r_i_glide_einternal>  (1) 
1.1693970820421491

>  <r_i_glide_emodel>  (1) 
-25.017487932203679

>  <r_i_glide_emodel_strain>  (1) 
0.013685922084846425

>  <r_i_glide_energy>  (1) 
-22.774239353419595

>  <r_i_glide_erotb>  (1) 
0.31537474361301371

>  <r_i_glide_esite>  (1) 
0

>  <r_i_glide_evdw>  (1) 
-22.550214204135184

>  <r_i_glide_gscore>  (1) 
-1.9693422663032443

>  <r_i_glide_gscore_strain>  (1) 
0

>  <r_i_glide_hbond>  (1) 
0

>  <r_i_glide_ligand_efficiency>  (1) 
-0.056266921894378409

>  <r_i_glide_ligand_efficiency_ln>  (1) 
-0.4323143346502813

>  <r_i_glide_ligand_efficiency_sa>  (1) 
-0.18405283258671398

>  <r_i_glide_lipo>  (1) 
-0.90852051564176606

>  <r_i_glide_metal>  (1) 
-0

>  <r_i_glide_rewards>  (1) 
-0.21508201167507068

>  <r_lp_Energy>  (1) 
25.974439

>  <r_lp_tautomer_probability>  (1) 
1

>  <s_epik_Chemistry_Notes>  (1) 
This compound has a N-S or N-O group and may undergo hydrolysis at high or low pH.

>  <s_epik_cmdline>  (1) 
J2VwaWtfcHl0aG9uJywgJy1waHQnLCAnMS4wJywgJy1waCcsICc3LjQnLCAnLXRuJywgJzgnLCAnLW1hJywgJzUwMCcsICctaW1hZScsICc8aW5maWxlLm1hZT4nLCAnLW9tYWUnLCAnPG91dGZpbGUubWFlPic=

>  <s_epik_input>  (1) 
W0NIMl0xW0NASF0oW0NASF0xMilbQ0gyXVtDSDJdW0NASF0yW0NIMl1bQ0BASF0oW0NAQEhdKFtDQEBIXTM0KVtDSDJdNClbQ0gyXVtDQEhdM1tDQEBIXShbQ0gyXVtDSDJdNSlbQ0BASF0oQyhGKShGKUYpW0NIXT1DNU4oW0NIMl02KU9bQ0BASF0oW0NIMl1bQ0gyXU83KVtDQEBIXTZbQ0BAXTc4U1tDQEhdOFtDSDNd

>  <s_glide_docking_method>  (1) 
confgen

>  <s_i_glide_gridfile>  (1) 
gpcr_drd2_6luq_protein_autoprepared_prepared

>  <s_lp_Force_Field>  (1) 
S-OPLS

>  <s_lp_Variant>  (1) 
DiffSBDD_43-2

>  <s_m_source_file>  (1) 
generated_generic_title2_ligand_DiffSBDD_2026-06-23_prepared.sdf

>  <GenAI_Model>  (1) 
DiffSBDD

>  <Protein>  (1) 
generic_title2

$$$$
DiffSBDD_32
     RDKit          3D

  0  0  0  0  0  0  0  0  0  0999 V3000
M  V30 BEGIN CTAB
M  V30 COUNTS 75 78 0 0 1
M  V30 BEGIN ATOM
M  V30 1 O 12.245595 2.278880 -20.223679 0
M  V30 2 C 6.128489 -2.427925 -20.208258 0 CFG=1
M  V30 3 F 14.397584 5.878903 -18.900638 0
M  V30 4 O 11.504902 -0.409765 -17.585051 0
M  V30 5 O 8.457633 -0.479633 -17.142474 0
M  V30 6 C 5.202049 -0.656062 -18.494045 0
M  V30 7 C 14.439536 0.990137 -17.311795 0
M  V30 8 C 13.610028 -0.020474 -19.953329 0 CFG=1
M  V30 9 O 13.845893 3.201948 -18.177360 0
M  V30 10 O 15.721796 2.899768 -19.465355 0
M  V30 11 C 11.049685 -0.009458 -18.863745 0 CFG=1
M  V30 12 C 6.619185 1.170000 -17.308240 0
M  V30 13 C 5.896332 -2.011750 -18.731324 0
M  V30 14 O 10.703076 2.145737 -20.018502 0
M  V30 15 S 14.287032 0.008320 -21.634529 0 CHG=-1
M  V30 16 C 5.635365 0.000851 -17.189364 0
M  V30 17 C 13.384937 6.437710 -16.141562 0
M  V30 18 C 4.837306 -2.865102 -20.928725 0
M  V30 19 C 13.014707 1.306311 -19.501511 0 CFG=2
M  V30 20 C 14.819641 5.990307 -15.920811 0 CFG=2
M  V30 21 O 13.375403 7.827217 -16.387984 0
M  V30 22 C 5.163880 -0.409882 -16.001437 0
M  V30 23 F 17.892909 6.249938 -17.240123 0
M  V30 24 C 8.153552 -0.784664 -20.422609 0
M  V30 25 O 17.062815 5.235678 -16.632564 0
M  V30 26 C 15.697394 5.344513 -16.976617 0 CFG=2
M  V30 27 C 8.749786 1.296614 -18.858671 0 CFG=1
M  V30 28 C 10.307177 1.356232 -18.872855 0 CFG=1
M  V30 29 C 15.346639 5.060142 -18.447403 0 CFG=1
M  V30 30 C 4.081571 -4.024964 -20.262527 0
M  V30 31 N 14.975130 4.555896 -15.985022 0
M  V30 32 C 12.136475 0.098503 -19.891732 0 CFG=1
M  V30 33 C 6.878645 -1.373706 -21.065681 0
M  V30 34 C 14.998545 3.603114 -18.762475 0
M  V30 35 C 13.428084 1.842647 -18.116107 0 CFG=1
M  V30 36 C 8.079940 0.735945 -20.146059 0
M  V30 37 C 8.131148 0.846151 -17.499305 0 CFG=2
M  V30 38 H 6.773347 -3.307430 -20.169800 0
M  V30 39 H 11.987166 0.297857 -17.188967 0
M  V30 40 H 7.994998 -0.715489 -16.351027 0
M  V30 41 H 5.345398 0.039004 -19.314932 0
M  V30 42 H 4.123918 -0.819481 -18.458099 0
M  V30 43 H 14.046262 0.002087 -17.077681 0
M  V30 44 H 15.375492 0.845399 -17.851397 0
M  V30 45 H 14.677904 1.469591 -16.362806 0
M  V30 46 H 14.103091 -0.721805 -19.284503 0
M  V30 47 H 10.406081 -0.809739 -19.199631 0
M  V30 48 H 6.263869 1.860542 -18.072978 0
M  V30 49 H 6.532001 1.739331 -16.381549 0
M  V30 50 H 5.341308 -2.783510 -18.199952 0
M  V30 51 H 6.852497 -2.028046 -18.220264 0
M  V30 52 H 12.797662 6.227121 -15.246711 0
M  V30 53 H 12.921137 5.903902 -16.970994 0
M  V30 54 H 4.175510 -2.009715 -21.036018 0
M  V30 55 H 5.089420 -3.167839 -21.945336 0
M  V30 56 H 15.303979 6.389455 -15.032228 0
M  V30 57 H 12.530178 8.085983 -16.726394 0
M  V30 58 H 5.471213 0.066423 -15.081992 0
M  V30 59 H 4.464653 -1.231094 -15.935974 0
M  V30 60 H 8.999312 -0.969206 -21.085496 0
M  V30 61 H 8.388481 -1.342941 -19.523725 0
M  V30 62 H 8.481406 2.354132 -18.898819 0
M  V30 63 H 10.593811 1.938159 -17.999565 0
M  V30 64 H 16.221554 5.317381 -19.044246 0
M  V30 65 H 3.270209 -4.372353 -20.902054 0
M  V30 66 H 4.741145 -4.872227 -20.073724 0
M  V30 67 H 3.633429 -3.725154 -19.314752 0
M  V30 68 H 14.155397 4.144213 -16.424289 0
M  V30 69 H 11.706682 0.064574 -20.893654 0
M  V30 70 H 6.193383 -0.578594 -21.362108 0
M  V30 71 H 7.163549 -1.846560 -22.006638 0
M  V30 72 H 12.542233 1.895187 -17.493865 0
M  V30 73 H 7.042891 1.059116 -20.134504 0
M  V30 74 H 8.492520 1.252214 -21.013221 0
M  V30 75 H 8.643289 1.443443 -16.743383 0
M  V30 END ATOM
M  V30 BEGIN BOND
M  V30 1 1 11 4
M  V30 2 1 13 2
M  V30 3 1 13 6
M  V30 4 1 14 1
M  V30 5 1 15 8
M  V30 6 1 16 6
M  V30 7 1 16 12
M  V30 8 1 18 2
M  V30 9 1 19 1 CFG=3
M  V30 10 1 19 8
M  V30 11 1 20 17
M  V30 12 1 21 17
M  V30 13 2 22 16
M  V30 14 1 25 23
M  V30 15 1 26 20
M  V30 16 1 26 25 CFG=3
M  V30 17 1 28 11
M  V30 18 1 28 14
M  V30 19 1 28 27
M  V30 20 1 29 3
M  V30 21 1 29 26
M  V30 22 1 30 18
M  V30 23 1 31 20
M  V30 24 1 31 26
M  V30 25 1 32 8
M  V30 26 1 32 11
M  V30 27 1 32 19
M  V30 28 1 33 2
M  V30 29 1 33 24
M  V30 30 1 34 9
M  V30 31 2 34 10
M  V30 32 1 34 29
M  V30 33 1 35 7
M  V30 34 1 35 9
M  V30 35 1 35 19
M  V30 36 1 36 24
M  V30 37 1 36 27
M  V30 38 1 37 5
M  V30 39 1 37 12
M  V30 40 1 37 27
M  V30 41 1 2 38 CFG=1
M  V30 42 1 39 4
M  V30 43 1 40 5
M  V30 44 1 41 6
M  V30 45 1 42 6
M  V30 46 1 43 7
M  V30 47 1 44 7
M  V30 48 1 45 7
M  V30 49 1 8 46 CFG=1
M  V30 50 1 11 47 CFG=3
M  V30 51 1 48 12
M  V30 52 1 49 12
M  V30 53 1 50 13
M  V30 54 1 51 13
M  V30 55 1 52 17
M  V30 56 1 53 17
M  V30 57 1 54 18
M  V30 58 1 55 18
M  V30 59 1 20 56 CFG=1
M  V30 60 1 57 21
M  V30 61 1 58 22
M  V30 62 1 59 22
M  V30 63 1 60 24
M  V30 64 1 61 24
M  V30 65 1 27 62 CFG=3
M  V30 66 1 28 63 CFG=1
M  V30 67 1 29 64 CFG=3
M  V30 68 1 65 30
M  V30 69 1 66 30
M  V30 70 1 67 30
M  V30 71 1 68 31
M  V30 72 1 32 69 CFG=3
M  V30 73 1 70 33
M  V30 74 1 71 33
M  V30 75 1 35 72 CFG=1
M  V30 76 1 73 36
M  V30 77 1 74 36
M  V30 78 1 37 75 CFG=1
M  V30 END BOND
M  V30 END CTAB
M  END
>  <i_epik_Tot_Q>  (1) 
-1

>  <i_epik_Tot_abs_Q>  (1) 
1

>  <i_i_glide_confnum>  (1) 
165

>  <i_i_glide_lignum>  (1) 
55

>  <i_i_glide_posenum>  (1) 
304

>  <i_i_glide_rotatable_bonds>  (1) 
12

>  <i_lp_mmshare_version>  (1) 
72125

>  <i_m_source_file_index>  (1) 
33

>  <i_f3d_flags>  (1) 
0

>  <num_sample>  (1) 
100

>  <b_lp_Chiralities_Consistent>  (1) 
1

>  <r_epik_Charging_Adjusted_Penalty>  (1) 
2.2826120202495259

>  <r_epik_Ionization_Penalty>  (1) 
1.1413067509942614

>  <r_epik_Ionization_Penalty_Charging>  (1) 
1.1413060101247627

>  <r_epik_Ionization_Penalty_Neutral>  (1) 
7.4086949864391441e-07

>  <r_epik_State_Penalty>  (1) 
1.141306010124763

>  <r_glide_ring_energy>  (1) 
0

>  <r_i_docking_score>  (1) 
-1.9387670264678345

>  <r_i_glide_ecoul>  (1) 
-2.7440432546529205

>  <r_i_glide_eff_state_penalty>  (1) 
1.141306010124763

>  <r_i_glide_einternal>  (1) 
7.4819774866251834

>  <r_i_glide_emodel>  (1) 
-30.473038349592485

>  <r_i_glide_emodel_strain>  (1) 
0.13184145157472926

>  <r_i_glide_energy>  (1) 
-31.297868793715651

>  <r_i_glide_erotb>  (1) 
0.40941976569591371

>  <r_i_glide_esite>  (1) 
-0.0028830274493061346

>  <r_i_glide_evdw>  (1) 
-28.553825539062728

>  <r_i_glide_gscore>  (1) 
-3.0800730365925975

>  <r_i_glide_gscore_strain>  (1) 
0

>  <r_i_glide_hbond>  (1) 
-0.12427823581905395

>  <r_i_glide_ligand_efficiency>  (1) 
-0.052399108823454985

>  <r_i_glide_ligand_efficiency_ln>  (1) 
-0.42047311689311978

>  <r_i_glide_ligand_efficiency_sa>  (1) 
-0.17460545542829101

>  <r_i_glide_lipo>  (1) 
-1.209698529506616

>  <r_i_glide_metal>  (1) 
-0

>  <r_i_glide_rewards>  (1) 
-0.31333524436246035

>  <r_lp_Energy>  (1) 
53.843353

>  <s_epik_Chemistry_Notes>  (1) 
This compound has an ester and may undergo hydrolysis at high or low pH.

>  <s_epik_cmdline>  (1) 
J2VwaWtfcHl0aG9uJywgJy1waHQnLCAnMS4wJywgJy1waCcsICc3LjQnLCAnLXRuJywgJzgnLCAnLW1hJywgJzUwMCcsICctaW1hZScsICc8aW5maWxlLm1hZT4nLCAnLW9tYWUnLCAnPG91dGZpbGUubWFlPic=

>  <s_epik_input>  (1) 
W0NIM11bQ0gyXVtDQEBIXTFbQ0gyXVtDSDJdQyg9W0NIMl0pW0NIMl1bQ0BASF0oW09IXSlbQ0BIXShbQ0gyXVtDSDJdW0NIMl0xKVtDQEhdKE9PMilbQ0BIXShbT0hdKVtDQEhdKFtDQEhdM1tTSF0pW0NAXTIzW0NAQEhdKFtDSDNdKU9DKD1PKVtDQEBIXShGKUM0KE9GKVtDQEhdKFtOSF00KVtDSDJdW09IXQ==

>  <s_glide_docking_method>  (1) 
confgen

>  <s_i_glide_gridfile>  (1) 
gpcr_drd2_6luq_protein_autoprepared_prepared

>  <s_lp_Force_Field>  (1) 
S-OPLS

>  <s_lp_Variant>  (1) 
DiffSBDD_32-2

>  <s_m_source_file>  (1) 
generated_generic_title2_ligand_DiffSBDD_2026-06-23_prepared.sdf

>  <GenAI_Model>  (1) 
DiffSBDD

>  <Protein>  (1) 
generic_title2

$$$$
DiffSBDD_3
     RDKit          3D

  0  0  0  0  0  0  0  0  0  0999 V3000
M  V30 BEGIN CTAB
M  V30 COUNTS 88 96 0 0 1
M  V30 BEGIN ATOM
M  V30 1 C 5.661483 6.659958 -18.920851 0
M  V30 2 O 5.616237 4.818721 -13.844034 0
M  V30 3 C 11.305955 6.882361 -5.168206 0
M  V30 4 C 9.457817 4.918850 -10.673212 0
M  V30 5 C 9.838178 4.095096 -18.798192 0
M  V30 6 C 7.214029 6.385076 -12.351258 0 CFG=2
M  V30 7 C 10.714615 3.977789 -17.590650 0
M  V30 8 C 9.952884 6.167537 -7.162268 0 CFG=2
M  V30 9 O 6.480604 5.989968 -11.205253 0
M  V30 10 C 8.954526 6.880149 -6.373618 0
M  V30 11 C 9.594374 7.346996 -11.965650 0 CFG=2
M  V30 12 C 6.330631 4.306543 -19.261434 0
M  V30 13 C 5.218832 3.987336 -12.764170 0
M  V30 14 C 7.272339 2.838718 -17.452699 0
M  V30 15 C 6.400310 6.001456 -13.633875 0 CFG=2
M  V30 16 C 7.315383 3.176043 -18.952206 0 CFG=2
M  V30 17 C 10.750132 8.649659 -7.060616 0 CFG=2
M  V30 18 C 6.706163 5.596813 -18.493679 0 CFG=1
M  V30 19 C 6.172110 6.903211 -14.831014 0
M  V30 20 C 11.291163 3.808593 -19.005794 0
M  V30 21 C 7.758321 5.403449 -13.359490 0
M  V30 22 C 10.152324 7.544038 -9.304449 0 CFG=2
M  V30 23 C 10.163481 6.033989 -11.475477 0 CFG=1
M  V30 24 C 9.044196 5.046704 -19.578669 0 CFG=2
M  V30 25 C 7.394174 4.069529 -16.532361 0
M  V30 26 C 11.701020 9.626430 -6.343920 0
M  V30 27 C 10.540891 7.337008 -10.765978 0 CFG=1
M  V30 28 C 8.149453 6.071426 -18.889418 0
M  V30 29 C 10.409497 7.335616 -6.318007 0 CFG=1
M  V30 30 C 6.577131 5.325722 -16.955021 0 CFG=1
M  V30 31 C 6.975743 6.538753 -16.091528 0
M  V30 32 F 11.694712 7.802243 -4.288399 0
M  V30 33 C 8.694857 3.494626 -19.515879 0 CFG=1
M  V30 34 C 8.090126 7.619504 -12.060011 0
M  V30 35 C 8.967129 5.331322 -9.287337 0
M  V30 36 C 11.178347 8.406456 -8.529406 0
M  V30 37 C 10.045224 6.170146 -8.640165 0 CFG=2
M  V30 38 H 5.699021 6.842890 -19.994206 0
M  V30 39 H 4.649388 6.329975 -18.684403 0
M  V30 40 H 5.795178 7.625472 -18.438881 0
M  V30 41 H 10.783202 6.126663 -4.584690 0
M  V30 42 H 12.175843 6.384331 -5.576974 0
M  V30 43 H 8.661650 4.434955 -11.216496 0
M  V30 44 H 10.175345 4.116796 -10.543267 0
M  V30 45 H 10.955390 4.892681 -17.051975 0
M  V30 46 H 10.619793 3.083153 -16.979774 0
M  V30 47 H 10.203907 5.190323 -6.785340 0
M  V30 48 H 6.575465 6.671749 -10.532692 0
M  V30 49 H 8.234921 7.516891 -6.876454 0
M  V30 50 H 8.575368 6.240120 -5.587990 0
M  V30 51 H 10.113929 7.813483 -12.785037 0
M  V30 52 H 6.314396 4.493520 -20.336090 0
M  V30 53 H 5.322003 3.992133 -18.989864 0
M  V30 54 H 4.575405 4.499787 -12.054787 0
M  V30 55 H 4.651338 3.166334 -13.185746 0
M  V30 56 H 6.054301 3.547662 -12.219523 0
M  V30 57 H 8.048160 2.111997 -17.209119 0
M  V30 58 H 6.330827 2.333856 -17.239876 0
M  V30 59 H 6.972363 2.287800 -19.483654 0
M  V30 60 H 9.804342 9.188642 -7.123492 0
M  V30 61 H 5.108973 6.940601 -15.059810 0
M  V30 62 H 6.446898 7.912848 -14.546507 0
M  V30 63 H 11.566710 2.803783 -19.319223 0
M  V30 64 H 11.913340 4.611616 -19.396918 0
M  V30 65 H 8.617205 5.751386 -13.924939 0
M  V30 66 H 7.826507 4.344953 -13.124013 0
M  V30 67 H 9.191505 8.057137 -9.272668 0
M  V30 68 H 10.886936 5.626333 -12.180211 0
M  V30 69 H 9.518065 5.412935 -20.488303 0
M  V30 70 H 8.443305 4.341287 -16.476244 0
M  V30 71 H 7.135673 3.765622 -15.520958 0
M  V30 72 H 12.703930 9.215648 -6.245415 0
M  V30 73 H 11.775358 10.563862 -6.891086 0
M  V30 74 H 11.329795 9.892455 -5.356262 0
M  V30 75 H 11.554988 7.670534 -10.976049 0
M  V30 76 H 8.090647 6.940369 -19.545459 0
M  V30 77 H 8.706299 6.412517 -18.019926 0
M  V30 78 H 5.524508 5.190704 -16.742179 0
M  V30 79 H 6.959178 7.433792 -16.699230 0
M  V30 80 H 8.014981 6.390209 -15.818584 0
M  V30 81 H 8.949609 2.912899 -20.400087 0
M  V30 82 H 7.949870 8.326845 -12.877996 0
M  V30 83 H 7.774506 8.170920 -11.185037 0
M  V30 84 H 8.052212 5.912789 -9.324149 0
M  V30 85 H 8.745043 4.446231 -8.692066 0
M  V30 86 H 11.302546 9.365398 -9.037167 0
M  V30 87 H 12.155037 7.922064 -8.549558 0
M  V30 88 H 10.974987 5.650460 -8.785045 0
M  V30 END ATOM
M  V30 BEGIN BOND
M  V30 1 1 7 5
M  V30 2 1 6 9 CFG=1
M  V30 3 1 10 8
M  V30 4 1 13 2
M  V30 5 1 15 2 CFG=1
M  V30 6 1 15 6
M  V30 7 1 16 12
M  V30 8 1 16 14
M  V30 9 1 18 1 CFG=3
M  V30 10 1 18 12
M  V30 11 1 19 15
M  V30 12 1 20 5
M  V30 13 1 20 7
M  V30 14 1 21 6
M  V30 15 1 21 15
M  V30 16 1 23 4
M  V30 17 1 23 11
M  V30 18 1 24 5
M  V30 19 1 25 14
M  V30 20 1 26 17
M  V30 21 1 27 11
M  V30 22 1 27 22
M  V30 23 1 27 23
M  V30 24 1 28 18
M  V30 25 1 28 24
M  V30 26 1 29 3 CFG=1
M  V30 27 1 29 8
M  V30 28 1 29 10
M  V30 29 1 29 17
M  V30 30 1 30 18
M  V30 31 1 30 25
M  V30 32 1 31 19
M  V30 33 1 31 30
M  V30 34 1 32 3
M  V30 35 1 33 5
M  V30 36 1 33 16
M  V30 37 1 33 24
M  V30 38 1 34 6
M  V30 39 1 34 11
M  V30 40 1 35 4
M  V30 41 1 36 17
M  V30 42 1 36 22
M  V30 43 1 37 8
M  V30 44 1 37 22
M  V30 45 1 37 35
M  V30 46 1 38 1
M  V30 47 1 39 1
M  V30 48 1 40 1
M  V30 49 1 41 3
M  V30 50 1 42 3
M  V30 51 1 43 4
M  V30 52 1 44 4
M  V30 53 1 45 7
M  V30 54 1 46 7
M  V30 55 1 8 47 CFG=1
M  V30 56 1 48 9
M  V30 57 1 49 10
M  V30 58 1 50 10
M  V30 59 1 11 51 CFG=3
M  V30 60 1 52 12
M  V30 61 1 53 12
M  V30 62 1 54 13
M  V30 63 1 55 13
M  V30 64 1 56 13
M  V30 65 1 57 14
M  V30 66 1 58 14
M  V30 67 1 16 59 CFG=3
M  V30 68 1 17 60 CFG=3
M  V30 69 1 61 19
M  V30 70 1 62 19
M  V30 71 1 63 20
M  V30 72 1 64 20
M  V30 73 1 65 21
M  V30 74 1 66 21
M  V30 75 1 22 67 CFG=3
M  V30 76 1 23 68 CFG=3
M  V30 77 1 24 69 CFG=3
M  V30 78 1 70 25
M  V30 79 1 71 25
M  V30 80 1 72 26
M  V30 81 1 73 26
M  V30 82 1 74 26
M  V30 83 1 27 75 CFG=3
M  V30 84 1 76 28
M  V30 85 1 77 28
M  V30 86 1 30 78 CFG=3
M  V30 87 1 79 31
M  V30 88 1 80 31
M  V30 89 1 33 81 CFG=3
M  V30 90 1 82 34
M  V30 91 1 83 34
M  V30 92 1 84 35
M  V30 93 1 85 35
M  V30 94 1 86 36
M  V30 95 1 87 36
M  V30 96 1 37 88 CFG=1
M  V30 END BOND
M  V30 END CTAB
M  END
>  <i_epik_Tot_Q>  (1) 
0

>  <i_epik_Tot_abs_Q>  (1) 
0

>  <i_i_glide_confnum>  (1) 
137

>  <i_i_glide_lignum>  (1) 
7

>  <i_i_glide_posenum>  (1) 
235

>  <i_i_glide_rotatable_bonds>  (1) 
8

>  <i_lp_mmshare_version>  (1) 
72125

>  <i_m_source_file_index>  (1) 
4

>  <i_f3d_flags>  (1) 
0

>  <num_sample>  (1) 
100

>  <b_lp_Chiralities_Consistent>  (1) 
1

>  <r_epik_Charging_Adjusted_Penalty>  (1) 
0

>  <r_epik_Ionization_Penalty>  (1) 
4.4190122057335124e-08

>  <r_epik_Ionization_Penalty_Charging>  (1) 
0

>  <r_epik_Ionization_Penalty_Neutral>  (1) 
4.4190122057335124e-08

>  <r_epik_State_Penalty>  (1) 
-0

>  <r_glide_ring_energy>  (1) 
0

>  <r_i_docking_score>  (1) 
-1.9141809931568785

>  <r_i_glide_ecoul>  (1) 
-5.8473655530233239

>  <r_i_glide_eff_state_penalty>  (1) 
-0

>  <r_i_glide_einternal>  (1) 
9.3038632275126325

>  <r_i_glide_emodel>  (1) 
-5.547640846553513

>  <r_i_glide_emodel_strain>  (1) 
17.819869566726169

>  <r_i_glide_energy>  (1) 
-25.387309883044292

>  <r_i_glide_erotb>  (1) 
0.39265675438420033

>  <r_i_glide_esite>  (1) 
0

>  <r_i_glide_evdw>  (1) 
-19.539944330020969

>  <r_i_glide_gscore>  (1) 
-1.9141809931568785

>  <r_i_glide_gscore_strain>  (1) 
3.4549673916815422

>  <r_i_glide_hbond>  (1) 
-0.16

>  <r_i_glide_ligand_efficiency>  (1) 
-0.051734621436672394

>  <r_i_glide_ligand_efficiency_ln>  (1) 
-0.41514098264637134

>  <r_i_glide_ligand_efficiency_sa>  (1) 
-0.17239123603791093

>  <r_i_glide_lipo>  (1) 
-2.8577496873222343

>  <r_i_glide_metal>  (1) 
-0

>  <r_i_glide_rewards>  (1) 
-0.88995340244583931

>  <r_lp_Energy>  (1) 
90.289001999999996

>  <r_lp_tautomer_probability>  (1) 
1

>  <s_epik_cmdline>  (1) 
J2VwaWtfcHl0aG9uJywgJy1waHQnLCAnMS4wJywgJy1waCcsICc3LjQnLCAnLXRuJywgJzgnLCAnLW1hJywgJzUwMCcsICctaW1hZScsICc8aW5maWxlLm1hZT4nLCAnLW9tYWUnLCAnPG91dGZpbGUubWFlPic=

>  <s_epik_input>  (1) 
W0NIMl0xW0NIMl1DMTJbQ0BIXTNbQ0BASF0yW0NAQEhdNFtDSDJdW0NAXShbQ0gzXSkoW0NIMl0zKVtDQEBIXShbQ0gyXVtDSDJdNClbQ0gyXVtDSDJdW0NAXShbQ0gyXTUpKE9bQ0gzXSlbQ0BdNShbT0hdKVtDSDJdW0NAQEhdNltDQEhdKFtDSDJdW0NIMl03KVtDQEBIXTZbQ0BIXShbQ0gyXVtDQEBIXThbQ0gzXSlbQ0BIXTdbQ0BIXShbQ0gyXTkpW0NAQF04OVtDSDJdRg==

>  <s_glide_docking_method>  (1) 
confgen

>  <s_i_glide_gridfile>  (1) 
gpcr_drd2_6luq_protein_autoprepared_prepared

>  <s_lp_Force_Field>  (1) 
S-OPLS

>  <s_lp_Variant>  (1) 
DiffSBDD_3-1

>  <s_m_source_file>  (1) 
generated_generic_title2_ligand_DiffSBDD_2026-06-23_prepared.sdf

>  <GenAI_Model>  (1) 
DiffSBDD

>  <Protein>  (1) 
generic_title2

$$$$
DiffSBDD_86
     RDKit          3D

  0  0  0  0  0  0  0  0  0  0999 V3000
M  V30 BEGIN CTAB
M  V30 COUNTS 113 116 0 0 1
M  V30 BEGIN ATOM
M  V30 1 C 14.601010 2.597639 -17.231128 0
M  V30 2 C 14.893257 4.080772 -17.434207 0 CFG=1
M  V30 3 C 10.509566 6.612538 -6.785300 0
M  V30 4 C 5.548299 6.658856 -17.816067 0
M  V30 5 C 8.116240 3.840804 -19.326434 0 CFG=2
M  V30 6 C 8.038860 4.279587 -11.651051 0
M  V30 7 O 9.690718 2.132902 -18.730009 0
M  V30 8 C 7.634306 2.080092 -17.498423 0 CFG=2
M  V30 9 O 9.379086 -1.061779 -17.903933 0
M  V30 10 C 8.704718 1.240708 -18.203406 0 CFG=2
M  V30 11 C 7.413177 4.679644 -20.409917 0
M  V30 12 O 16.201977 4.390381 -16.996515 0
M  V30 13 N 9.335992 5.817351 -8.806054 0
M  V30 14 C 11.033188 5.199416 -16.817081 0
M  V30 15 C 12.407569 2.637829 -18.674598 0 CFG=1
M  V30 16 C 7.179141 3.475096 -13.802554 0 CFG=2
M  V30 17 O 13.432397 3.209251 -21.201614 0
M  V30 18 C 5.008266 8.441533 -15.984457 0
M  V30 19 C 9.357476 3.007313 -19.822555 0 CFG=1
M  V30 20 C 9.055511 2.016906 -21.011763 0
M  V30 21 C 11.659692 3.958533 -19.013371 0 CFG=2
M  V30 22 O 10.689291 6.390880 -12.785008 0
M  V30 23 O 6.943057 4.389848 -11.105033 0
M  V30 24 N 9.533646 7.066645 -10.834090 0
M  V30 25 C 10.570947 3.962252 -20.067642 0
M  V30 26 C 7.049363 3.001547 -18.583314 0
M  V30 27 C 11.969283 8.705291 -6.968318 0
M  V30 28 O 8.244638 3.853526 -12.927930 0
M  V30 29 P 13.306232 3.711530 -19.804165 0 CFG=1
M  V30 30 C 5.942162 7.461846 -15.355854 0 CFG=2
M  V30 31 C 14.751844 4.480796 -18.907739 0
M  V30 32 C 9.158087 2.451057 -22.482720 0
M  V30 33 C 4.999200 7.015266 -16.456379 0 CFG=2
M  V30 34 F 10.332804 5.591781 -13.938171 0
M  V30 35 C 5.775240 7.052078 -13.910498 0
M  V30 36 C 10.650473 4.762597 -21.151120 0
M  V30 37 C 11.680540 5.265758 -18.198461 0
M  V30 38 C 9.397417 5.949313 -10.186115 0
M  V30 39 C 13.102991 2.284585 -17.356996 0
M  V30 40 C 7.693793 2.380077 -14.803148 0 CFG=2
M  V30 41 C 9.335702 4.599686 -10.919290 0
M  V30 42 C 9.525669 6.950866 -7.911652 0
M  V30 43 C 9.417912 0.215411 -17.311631 0
M  V30 44 C 8.162041 2.838975 -16.238490 0
M  V30 45 O 6.710737 1.365667 -14.850801 0
M  V30 46 C 5.561871 5.545419 -13.741420 0
M  V30 47 C 6.629277 4.734502 -14.495813 0
M  V30 48 C 11.067815 7.847379 -6.069042 0
M  V30 49 C 9.585626 7.105130 -12.273073 0
M  V30 50 H 14.926697 2.298464 -16.233005 0
M  V30 51 H 15.180231 1.995109 -17.932789 0
M  V30 52 H 14.208620 4.655469 -16.810706 0
M  V30 53 H 9.999938 5.989351 -6.052636 0
M  V30 54 H 11.343161 6.023296 -7.171686 0
M  V30 55 H 6.046387 7.512448 -18.273722 0
M  V30 56 H 6.272934 5.852826 -17.715914 0
M  V30 57 H 4.742860 6.336229 -18.473696 0
M  V30 58 H 8.496802 4.553106 -18.595189 0
M  V30 59 H 6.826831 1.406224 -17.223801 0
M  V30 60 H 9.742938 -0.993147 -18.773135 0
M  V30 61 H 8.211560 0.678238 -18.994203 0
M  V30 62 H 7.022591 4.056124 -21.211475 0
M  V30 63 H 6.563520 5.219388 -19.996403 0
M  V30 64 H 8.065182 5.434654 -20.841167 0
M  V30 65 H 16.283155 5.331491 -16.945383 0
M  V30 66 H 9.224535 4.924090 -8.353167 0
M  V30 67 H 10.987581 6.197620 -16.382517 0
M  V30 68 H 10.014213 4.833162 -16.878372 0
M  V30 69 H 11.586891 4.578528 -16.118494 0
M  V30 70 H 12.056125 1.741386 -19.182603 0
M  V30 71 H 6.385685 3.028937 -13.199193 0
M  V30 72 H 4.168757 8.790211 -15.393065 0
M  V30 73 H 5.509953 9.189887 -16.585449 0
M  V30 74 H 9.726755 1.162204 -20.913268 0
M  V30 75 H 8.050795 1.612821 -20.898758 0
M  V30 76 H 6.297425 3.655115 -18.147154 0
M  V30 77 H 6.508915 2.390123 -19.307079 0
M  V30 78 H 12.578124 9.373081 -6.362134 0
M  V30 79 H 12.647266 8.089054 -7.563239 0
M  V30 80 H 11.382131 9.309082 -7.660870 0
M  V30 81 H 6.975387 7.555758 -15.651124 0
M  V30 82 H 14.721100 5.564199 -19.021316 0
M  V30 83 H 15.635204 4.147095 -19.452591 0
M  V30 84 H 8.860252 1.627335 -23.130982 0
M  V30 85 H 8.506435 3.289730 -22.720814 0
M  V30 86 H 10.182201 2.699344 -22.760422 0
M  V30 87 H 4.175446 6.382161 -16.142875 0
M  V30 88 H 4.975296 7.614068 -13.443949 0
M  V30 89 H 6.671374 7.357264 -13.373899 0
M  V30 90 H 11.497618 5.415961 -21.297275 0
M  V30 91 H 9.877435 4.777011 -21.897003 0
M  V30 92 H 12.679950 5.666099 -18.084620 0
M  V30 93 H 11.156837 6.036767 -18.765245 0
M  V30 94 H 12.568543 2.751638 -16.537729 0
M  V30 95 H 12.969203 1.215408 -17.190993 0
M  V30 96 H 8.541293 1.874675 -14.337303 0
M  V30 97 H 9.488592 3.806624 -10.192527 0
M  V30 98 H 10.173369 4.492933 -11.603871 0
M  V30 99 H 9.877549 7.815414 -8.474426 0
M  V30 100 H 8.575351 7.242309 -7.475143 0
M  V30 101 H 8.956429 0.145734 -16.329856 0
M  V30 102 H 10.461716 0.500741 -17.184429 0
M  V30 103 H 9.246578 2.788148 -16.270794 0
M  V30 104 H 7.994895 3.897809 -16.399480 0
M  V30 105 H 6.630011 0.977873 -13.991898 0
M  V30 106 H 4.575930 5.252233 -14.098094 0
M  V30 107 H 5.526503 5.328477 -12.682404 0
M  V30 108 H 7.481571 5.365516 -14.749647 0
M  V30 109 H 6.175587 4.458951 -15.444116 0
M  V30 110 H 10.252640 8.447474 -5.661858 0
M  V30 111 H 11.653572 7.503398 -5.216849 0
M  V30 112 H 8.658789 6.738145 -12.708189 0
M  V30 113 H 9.672083 8.143598 -12.588278 0
M  V30 END ATOM
M  V30 BEGIN BOND
M  V30 1 1 2 1
M  V30 2 1 10 7
M  V30 3 1 10 8
M  V30 4 1 11 5
M  V30 5 1 12 2
M  V30 6 1 19 5
M  V30 7 1 19 7
M  V30 8 1 19 20 CFG=3
M  V30 9 1 21 15
M  V30 10 2 23 6
M  V30 11 1 25 19
M  V30 12 1 25 21
M  V30 13 1 26 5
M  V30 14 1 26 8
M  V30 15 1 28 6
M  V30 16 1 28 16
M  V30 17 1 29 15
M  V30 18 2 29 17
M  V30 19 1 29 21
M  V30 20 1 30 18
M  V30 21 1 31 2
M  V30 22 1 29 31 CFG=1
M  V30 23 1 32 20
M  V30 24 1 33 4
M  V30 25 1 33 18
M  V30 26 1 33 30
M  V30 27 1 34 22
M  V30 28 1 35 30
M  V30 29 2 36 25
M  V30 30 1 37 14
M  V30 31 1 21 37 CFG=1
M  V30 32 1 38 13
M  V30 33 2 38 24
M  V30 34 1 39 1
M  V30 35 1 39 15
M  V30 36 1 40 16
M  V30 37 1 41 6
M  V30 38 1 41 38
M  V30 39 1 42 3
M  V30 40 1 42 13
M  V30 41 1 43 9
M  V30 42 1 43 10
M  V30 43 1 44 8
M  V30 44 1 44 40
M  V30 45 1 45 40
M  V30 46 1 46 35
M  V30 47 1 47 16
M  V30 48 1 47 46
M  V30 49 1 48 3
M  V30 50 1 48 27
M  V30 51 1 49 22
M  V30 52 1 49 24
M  V30 53 1 50 1
M  V30 54 1 51 1
M  V30 55 1 2 52 CFG=1
M  V30 56 1 53 3
M  V30 57 1 54 3
M  V30 58 1 55 4
M  V30 59 1 56 4
M  V30 60 1 57 4
M  V30 61 1 5 58 CFG=1
M  V30 62 1 8 59 CFG=1
M  V30 63 1 60 9
M  V30 64 1 10 61 CFG=3
M  V30 65 1 62 11
M  V30 66 1 63 11
M  V30 67 1 64 11
M  V30 68 1 65 12
M  V30 69 1 66 13
M  V30 70 1 67 14
M  V30 71 1 68 14
M  V30 72 1 69 14
M  V30 73 1 15 70 CFG=3
M  V30 74 1 16 71 CFG=1
M  V30 75 1 72 18
M  V30 76 1 73 18
M  V30 77 1 74 20
M  V30 78 1 75 20
M  V30 79 1 76 26
M  V30 80 1 77 26
M  V30 81 1 78 27
M  V30 82 1 79 27
M  V30 83 1 80 27
M  V30 84 1 30 81 CFG=3
M  V30 85 1 82 31
M  V30 86 1 83 31
M  V30 87 1 84 32
M  V30 88 1 85 32
M  V30 89 1 86 32
M  V30 90 1 33 87 CFG=1
M  V30 91 1 88 35
M  V30 92 1 89 35
M  V30 93 1 90 36
M  V30 94 1 91 36
M  V30 95 1 92 37
M  V30 96 1 93 37
M  V30 97 1 94 39
M  V30 98 1 95 39
M  V30 99 1 40 96 CFG=1
M  V30 100 1 97 41
M  V30 101 1 98 41
M  V30 102 1 99 42
M  V30 103 1 100 42
M  V30 104 1 101 43
M  V30 105 1 102 43
M  V30 106 1 103 44
M  V30 107 1 104 44
M  V30 108 1 105 45
M  V30 109 1 106 46
M  V30 110 1 107 46
M  V30 111 1 108 47
M  V30 112 1 109 47
M  V30 113 1 110 48
M  V30 114 1 111 48
M  V30 115 1 112 49
M  V30 116 1 113 49
M  V30 END BOND
M  V30 END CTAB
M  END
>  <i_epik_Tot_Q>  (1) 
0

>  <i_epik_Tot_abs_Q>  (1) 
0

>  <i_i_glide_confnum>  (1) 
6771

>  <i_i_glide_lignum>  (1) 
156

>  <i_i_glide_posenum>  (1) 
87

>  <i_i_glide_rotatable_bonds>  (1) 
25

>  <i_lp_mmshare_version>  (1) 
72125

>  <i_m_source_file_index>  (1) 
87

>  <i_f3d_flags>  (1) 
0

>  <num_sample>  (1) 
100

>  <b_lp_Chiralities_Consistent>  (1) 
1

>  <r_epik_Charging_Adjusted_Penalty>  (1) 
1.2316584192148512

>  <r_epik_Ionization_Penalty>  (1) 
1.2316590375040075

>  <r_epik_Ionization_Penalty_Charging>  (1) 
0

>  <r_epik_Ionization_Penalty_Neutral>  (1) 
1.2316590375040075

>  <r_epik_State_Penalty>  (1) 
1.2316584192148512

>  <r_glide_ring_energy>  (1) 
0

>  <r_i_docking_score>  (1) 
-1.8982263768483452

>  <r_i_glide_ecoul>  (1) 
-1.1282213393783698

>  <r_i_glide_eff_state_penalty>  (1) 
1.2316584192148512

>  <r_i_glide_einternal>  (1) 
28.558959050735744

>  <r_i_glide_emodel>  (1) 
-20.962933503080592

>  <r_i_glide_emodel_strain>  (1) 
13.899757726836469

>  <r_i_glide_energy>  (1) 
-42.145196587824195

>  <r_i_glide_erotb>  (1) 
0.57622798544967491

>  <r_i_glide_esite>  (1) 
-0.16006171241139694

>  <r_i_glide_evdw>  (1) 
-41.016975248445824

>  <r_i_glide_gscore>  (1) 
-3.1298847960631964

>  <r_i_glide_gscore_strain>  (1) 
2.4749394317091173

>  <r_i_glide_hbond>  (1) 
-0.32000000000000001

>  <r_i_glide_ligand_efficiency>  (1) 
-0.038739313813231535

>  <r_i_glide_ligand_efficiency_ln>  (1) 
-0.38804090526005203

>  <r_i_glide_ligand_efficiency_sa>  (1) 
-0.14175899223912994

>  <r_i_glide_lipo>  (1) 
-2.9040565766243054

>  <r_i_glide_metal>  (1) 
-0

>  <r_i_glide_rewards>  (1) 
-0.57685196085723967

>  <r_lp_Energy>  (1) 
50.302675999999998

>  <s_epik_Chemistry_Notes>  (1) 
This compound has an ester and may undergo hydrolysis at high or low pH. This compound has an imine and may undergo hydrolysis. This compound contains an acetal/aminal-like group ( X-CH(R)-Y where X, Y are N, S, or O) that may be acid/base labile, releasing an aldehyde.

>  <s_epik_cmdline>  (1) 
J2VwaWtfcHl0aG9uJywgJy1waHQnLCAnMS4wJywgJy1waCcsICc3LjQnLCAnLXRuJywgJzgnLCAnLW1hJywgJzUwMCcsICctaW1hZScsICc8aW5maWxlLm1hZT4nLCAnLW9tYWUnLCAnPG91dGZpbGUubWFlPic=

>  <s_epik_input>  (1) 
W09IXVtDQEBIXShbQ0gyXTEpW0NIMl1bQ0gyXVtDQEhdKFAxMj1PKVtDQEBdMihbQ0gyXVtDSDNdKUMoPVtDSDJdKVtDQF0zKFtDSDJdW0NIM10pW0NAQEhdKFtDSDNdKVtDSDJdW0NAQEhdKFtDQEBIXShPMylbQ0gyXVtPSF0pW0NIMl1bQ0BIXShbT0hdKVtDQEhdKFtDSDJdW0NIMl1bQ0gyXVtDQEBIXTRbQ0gyXVtDQEhdNFtDSDNdKU9DKD1PKVtDSDJdQyg9TlxbQ0gyXU9GKS9bTkhdW0NIMl1bQ0gyXVtDSDJdW0NIM10=

>  <s_glide_docking_method>  (1) 
confgen

>  <s_i_glide_gridfile>  (1) 
gpcr_drd2_6luq_protein_autoprepared_prepared

>  <s_lp_Force_Field>  (1) 
S-OPLS

>  <s_lp_Variant>  (1) 
DiffSBDD_86-4

>  <s_m_source_file>  (1) 
generated_generic_title2_ligand_DiffSBDD_2026-06-23_prepared.sdf

>  <GenAI_Model>  (1) 
DiffSBDD

>  <Protein>  (1) 
generic_title2

$$$$
DiffSBDD_37
     RDKit          3D

  0  0  0  0  0  0  0  0  0  0999 V3000
M  V30 BEGIN CTAB
M  V30 COUNTS 44 46 0 0 1
M  V30 BEGIN ATOM
M  V30 1 C 11.245171 1.072755 -19.412549 0
M  V30 2 O 16.548080 4.390248 -18.057307 0
M  V30 3 C 11.333930 3.501004 -18.752035 0 CFG=1
M  V30 4 C 14.019990 5.372554 -18.289635 0
M  V30 5 C 12.137320 3.858129 -17.471048 0
M  V30 6 C 6.848594 1.394246 -17.131703 0
M  V30 7 C 10.345070 1.387891 -18.223906 0 CFG=2
M  V30 8 O 14.518756 4.314958 -19.010845 0
M  V30 9 O 14.805212 8.925209 -17.587146 0
M  V30 10 C 12.321865 6.305121 -16.800309 0
M  V30 11 C 12.978498 7.551880 -16.832808 0
M  V30 12 C 15.207742 9.990179 -19.850761 0
M  V30 13 C 8.371760 1.525486 -17.012491 0 CFG=2
M  V30 14 C 14.676369 6.623350 -18.316608 0
M  V30 15 C 12.841468 5.211612 -17.524738 0
M  V30 16 C 15.785866 3.871606 -18.880032 0
M  V30 17 C 9.196297 -0.659709 -17.703492 0
M  V30 18 C 12.024059 2.399901 -19.615701 0
M  V30 19 S 8.893234 3.277046 -17.164727 0
M  V30 20 C 14.975879 9.490769 -18.761602 0
M  V30 21 O 16.175942 2.944452 -19.585174 0 CHG=-1
M  V30 22 N 9.049637 0.745484 -18.065924 0
M  V30 23 C 9.982996 2.817506 -18.504351 0 CFG=1
M  V30 24 C 14.157309 7.712603 -17.584780 0
M  V30 25 H 10.649159 0.842330 -20.297216 0
M  V30 26 H 11.904873 0.226102 -19.218664 0
M  V30 27 H 11.165292 4.408377 -19.333535 0
M  V30 28 H 11.489293 3.873932 -16.596740 0
M  V30 29 H 12.873379 3.086692 -17.240562 0
M  V30 30 H 6.519206 0.362781 -17.008417 0
M  V30 31 H 6.492162 1.749482 -18.099539 0
M  V30 32 H 6.358195 1.984571 -16.358791 0
M  V30 33 H 10.917727 1.312036 -17.296262 0
M  V30 34 H 11.421323 6.187208 -16.215520 0
M  V30 35 H 12.581008 8.384957 -16.276632 0
M  V30 36 H 15.395167 10.447809 -20.796251 0
M  V30 37 H 8.700693 1.181855 -16.030545 0
M  V30 38 H 15.580473 6.744044 -18.895555 0
M  V30 39 H 8.221718 -1.126379 -17.559242 0
M  V30 40 H 9.771483 -0.788574 -16.786353 0
M  V30 41 H 9.703776 -1.203193 -18.500247 0
M  V30 42 H 13.071526 2.263058 -19.350997 0
M  V30 43 H 12.006504 2.678456 -20.669799 0
M  V30 44 H 9.389979 2.875734 -19.420725 0
M  V30 END ATOM
M  V30 BEGIN BOND
M  V30 1 1 5 3
M  V30 2 1 7 1
M  V30 3 1 8 4
M  V30 4 2 11 10
M  V30 5 1 13 6
M  V30 6 1 14 4
M  V30 7 2 15 4
M  V30 8 1 15 5
M  V30 9 1 15 10
M  V30 10 2 16 2
M  V30 11 1 16 8
M  V30 12 1 18 1
M  V30 13 1 18 3
M  V30 14 1 19 13
M  V30 15 1 20 9
M  V30 16 3 20 12
M  V30 17 1 21 16
M  V30 18 1 22 7
M  V30 19 1 22 13
M  V30 20 1 22 17
M  V30 21 1 23 3
M  V30 22 1 23 7
M  V30 23 1 23 19
M  V30 24 1 24 9
M  V30 25 1 24 11
M  V30 26 2 24 14
M  V30 27 1 25 1
M  V30 28 1 26 1
M  V30 29 1 3 27 CFG=3
M  V30 30 1 28 5
M  V30 31 1 29 5
M  V30 32 1 30 6
M  V30 33 1 31 6
M  V30 34 1 32 6
M  V30 35 1 7 33 CFG=1
M  V30 36 1 34 10
M  V30 37 1 35 11
M  V30 38 1 36 12
M  V30 39 1 13 37 CFG=1
M  V30 40 1 38 14
M  V30 41 1 39 17
M  V30 42 1 40 17
M  V30 43 1 41 17
M  V30 44 1 42 18
M  V30 45 1 43 18
M  V30 46 1 23 44 CFG=3
M  V30 END BOND
M  V30 END CTAB
M  END
>  <i_epik_Tot_Q>  (1) 
-1

>  <i_epik_Tot_abs_Q>  (1) 
1

>  <i_i_glide_confnum>  (1) 
2

>  <i_i_glide_lignum>  (1) 
63

>  <i_i_glide_posenum>  (1) 
398

>  <i_i_glide_rotatable_bonds>  (1) 
6

>  <i_lp_mmshare_version>  (1) 
72125

>  <i_m_source_file_index>  (1) 
38

>  <i_f3d_flags>  (1) 
0

>  <num_sample>  (1) 
100

>  <b_lp_Chiralities_Consistent>  (1) 
1

>  <r_epik_Charging_Adjusted_Penalty>  (1) 
0.031102541531961528

>  <r_epik_Ionization_Penalty>  (1) 
0.017897684908629235

>  <r_epik_Ionization_Penalty_Charging>  (1) 
0.015551270765980757

>  <r_epik_Ionization_Penalty_Neutral>  (1) 
0.0023464141426484783

>  <r_epik_State_Penalty>  (1) 
0.015551270765980773

>  <r_glide_ring_energy>  (1) 
0

>  <r_i_docking_score>  (1) 
-1.8753345542990578

>  <r_i_glide_ecoul>  (1) 
-3.3544211498198404

>  <r_i_glide_eff_state_penalty>  (1) 
0.015551270765980773

>  <r_i_glide_einternal>  (1) 
1.5133070946383267

>  <r_i_glide_emodel>  (1) 
-25.255409700567899

>  <r_i_glide_emodel_strain>  (1) 
0.44613306000261588

>  <r_i_glide_energy>  (1) 
-23.484520926509333

>  <r_i_glide_erotb>  (1) 
0.79208317034527342

>  <r_i_glide_esite>  (1) 
-0.012124485687124936

>  <r_i_glide_evdw>  (1) 
-20.130099776689491

>  <r_i_glide_gscore>  (1) 
-1.8908858250650387

>  <r_i_glide_gscore_strain>  (1) 
0

>  <r_i_glide_hbond>  (1) 
-0.14412148988787685

>  <r_i_glide_ligand_efficiency>  (1) 
-0.078138939762460738

>  <r_i_glide_ligand_efficiency_ln>  (1) 
-0.44885361233914051

>  <r_i_glide_ligand_efficiency_sa>  (1) 
-0.22539170459337096

>  <r_i_glide_lipo>  (1) 
-1.0640134317253636

>  <r_i_glide_metal>  (1) 
-0

>  <r_i_glide_rewards>  (1) 
0.046958573197503517

>  <r_lp_Energy>  (1) 
41.583638999999998

>  <s_epik_Chemistry_Notes>  (1) 
This compound contains an acetal/aminal-like group ( X-CH(R)-Y where X, Y are N, S, or O) that may be acid/base labile, releasing an aldehyde. This is carbonic acid which has a microscopic pka value of about 3.8 however its equilibrium with CO2 as a lewis acid yields a pKa of about 6.35.

>  <s_epik_cmdline>  (1) 
J2VwaWtfcHl0aG9uJywgJy1waHQnLCAnMS4wJywgJy1waCcsICc3LjQnLCAnLXRuJywgJzgnLCAnLW1hJywgJzUwMCcsICctaW1hZScsICc8aW5maWxlLm1hZT4nLCAnLW9tYWUnLCAnPG91dGZpbGUubWFlPic=

>  <s_epik_input>  (1) 
W0NIM11OMVtDQEhdKFtDSDNdKVNbQ0BIXShbQ0BASF0xMilbQ0BIXShbQ0gyXVtDSDJdMilbQ0gyXWMzW2NIXVtjSF1jKE9DI1tDSF0pW2NIXWMzT0MoPU8pW09IXQ==

>  <s_glide_docking_method>  (1) 
confgen

>  <s_i_glide_gridfile>  (1) 
gpcr_drd2_6luq_protein_autoprepared_prepared

>  <s_lp_Force_Field>  (1) 
S-OPLS

>  <s_lp_Variant>  (1) 
DiffSBDD_37-1

>  <s_m_source_file>  (1) 
generated_generic_title2_ligand_DiffSBDD_2026-06-23_prepared.sdf

>  <GenAI_Model>  (1) 
DiffSBDD

>  <Protein>  (1) 
generic_title2

$$$$
DiffSBDD_74
     RDKit          3D

  0  0  0  0  0  0  0  0  0  0999 V3000
M  V30 BEGIN CTAB
M  V30 COUNTS 92 99 0 0 1
M  V30 BEGIN ATOM
M  V30 1 C 0.911160 20.459429 3.758665 0 CFG=2
M  V30 2 N -2.339272 19.658515 -4.714729 0
M  V30 3 C -3.921261 19.736134 -6.564167 0
M  V30 4 C -1.309626 18.987459 -3.973143 0
M  V30 5 F -0.091263 21.785731 -0.870044 0
M  V30 6 O -0.964716 20.851233 5.309227 0
M  V30 7 O -3.456310 19.408237 1.368861 0
M  V30 8 C -2.646136 21.088317 -4.403498 0 CFG=1
M  V30 9 C -4.466537 18.793629 -10.027400 0
M  V30 10 C -0.545041 20.077119 4.200587 0 CFG=1
M  V30 11 C -1.760288 17.620569 3.264360 0 CFG=2
M  V30 12 C -3.076064 18.988982 -5.791425 0
M  V30 13 C -4.642460 22.058854 -0.812245 0
M  V30 14 C -0.644201 19.877450 1.666379 0 CFG=1
M  V30 15 C -4.157686 18.393274 -8.693111 0
M  V30 16 C -0.651931 21.305497 0.234459 0
M  V30 17 C -0.334719 18.811030 -0.749595 0 CFG=2
M  V30 18 C -3.036932 18.072155 1.104007 0 CFG=1
M  V30 19 C 0.408600 20.867410 1.291597 0 CFG=1
M  V30 20 O -0.843030 19.805392 -3.001212 0
M  V30 21 O -0.443263 16.695380 5.083537 0
M  V30 22 O -2.836198 19.235226 4.702820 0
M  V30 23 C -0.504313 16.810317 3.674666 0 CFG=1
M  V30 24 S -3.235900 21.307680 -1.658560 0 CHG=1
M  V30 25 C -4.126950 17.051989 0.862426 0
M  V30 26 C -0.495892 15.377112 3.126640 0
M  V30 27 C 1.802044 20.905907 4.931243 0
M  V30 28 N -4.781170 19.122334 -11.091634 0
M  V30 29 C -4.089024 21.234546 -6.387336 0
M  V30 30 C -2.892938 17.511587 -5.998803 0
M  V30 31 C -2.361265 21.466931 2.986949 0
M  V30 32 C -1.440279 20.217759 2.975478 0 CFG=2
M  V30 33 O -0.884511 17.849399 -4.149797 0
M  V30 34 C -0.796832 17.342229 -0.944300 0
M  V30 35 C -3.406004 19.583147 -1.104559 0
M  V30 36 C 0.956250 21.515449 2.574094 0
M  V30 37 F -1.505403 22.231377 0.649604 0
M  V30 38 C -1.168020 19.785096 0.208693 0 CFG=1
M  V30 39 C -3.390581 17.325394 -8.482624 0
M  V30 40 C 0.175328 19.370944 -2.111028 0
M  V30 41 C -2.650545 19.277418 0.188808 0 CFG=1
M  V30 42 C -2.912852 21.862118 -5.681046 0
M  V30 43 O -1.895775 17.565533 1.830239 0
M  V30 44 C -3.808051 21.243386 -3.381647 0
M  V30 45 C -4.808182 19.146261 -7.602667 0
M  V30 46 C -1.713229 19.054497 3.848648 0 CFG=1
M  V30 47 C -3.020738 16.805978 -7.166290 0
M  V30 48 H 1.375214 19.543914 3.395445 0
M  V30 49 H -1.835016 20.525227 5.514620 0
M  V30 50 H -1.783917 21.626663 -4.008754 0
M  V30 51 H -2.633456 17.100720 3.664182 0
M  V30 52 H -4.485794 22.054781 0.265934 0
M  V30 53 H -5.539415 21.491191 -1.036288 0
M  V30 54 H -4.784524 23.088638 -1.139455 0
M  V30 55 H -0.071980 18.967713 1.833536 0
M  V30 56 H 0.575335 18.619182 -0.207216 0
M  V30 57 H 1.238058 20.383677 0.774159 0
M  V30 58 H -0.413759 17.559503 5.467809 0
M  V30 59 H -3.615387 19.215276 4.165385 0
M  V30 60 H 0.399486 17.314734 3.333408 0
M  V30 61 H -4.499773 16.674042 1.814536 0
M  V30 62 H -3.730764 16.212354 0.291637 0
M  V30 63 H -4.961580 17.486985 0.313856 0
M  V30 64 H -0.511960 15.365309 2.037457 0
M  V30 65 H -1.356962 14.810473 3.481799 0
M  V30 66 H 0.404879 14.849180 3.442948 0
M  V30 67 H 1.484157 21.868371 5.334255 0
M  V30 68 H 2.840282 21.011402 4.615482 0
M  V30 69 H 1.775048 20.176264 5.741034 0
M  V30 70 H -4.182949 21.705815 -7.366622 0
M  V30 71 H -5.024815 21.426301 -5.861291 0
M  V30 72 H -2.585900 16.931427 -5.151914 0
M  V30 73 H -3.060660 21.506962 2.159678 0
M  V30 74 H -1.776550 22.384441 2.988978 0
M  V30 75 H -2.976870 21.522573 3.882787 0
M  V30 76 H -1.791332 17.237071 -1.370619 0
M  V30 77 H -0.751000 16.764846 -0.025194 0
M  V30 78 H -0.123848 16.819207 -1.625217 0
M  V30 79 H -4.462787 19.344824 -0.989372 0
M  V30 80 H -3.047709 18.926028 -1.887799 0
M  V30 81 H 0.412778 22.420904 2.838787 0
M  V30 82 H 1.985861 21.832873 2.406805 0
M  V30 83 H -3.031309 16.789158 -9.349315 0
M  V30 84 H 0.879189 20.184515 -1.958702 0
M  V30 85 H 0.788090 18.620767 -2.611505 0
M  V30 86 H -3.104289 22.916594 -5.477420 0
M  V30 87 H -2.031536 21.827452 -6.325104 0
M  V30 88 H -4.295492 22.203192 -3.555907 0
M  V30 89 H -4.581402 20.485029 -3.508783 0
M  V30 90 H -5.489360 18.466168 -7.094877 0
M  V30 91 H -5.424602 19.927185 -8.046574 0
M  V30 92 H -2.781907 15.754948 -7.116938 0
M  V30 END ATOM
M  V30 BEGIN BOND
M  V30 1 1 4 2
M  V30 2 1 8 2
M  V30 3 1 10 1
M  V30 4 1 10 6 CFG=1
M  V30 5 1 12 2
M  V30 6 2 12 3
M  V30 7 1 15 9
M  V30 8 1 16 5
M  V30 9 1 18 7
M  V30 10 1 19 14
M  V30 11 1 19 16
M  V30 12 1 20 4
M  V30 13 1 23 11
M  V30 14 1 23 21
M  V30 15 1 24 13 CFG=1
M  V30 16 1 18 25 CFG=3
M  V30 17 1 26 23
M  V30 18 1 27 1
M  V30 19 3 28 9
M  V30 20 1 29 3
M  V30 21 1 30 12
M  V30 22 1 32 10
M  V30 23 1 32 14
M  V30 24 1 32 31 CFG=3
M  V30 25 2 33 4
M  V30 26 1 34 17
M  V30 27 1 35 24
M  V30 28 1 36 1
M  V30 29 1 36 19
M  V30 30 1 37 16
M  V30 31 1 38 14
M  V30 32 1 38 16 CFG=3
M  V30 33 1 38 17
M  V30 34 2 39 15
M  V30 35 1 40 17
M  V30 36 1 40 20
M  V30 37 1 41 7 CFG=1
M  V30 38 1 41 18
M  V30 39 1 41 35
M  V30 40 1 41 38
M  V30 41 1 42 8
M  V30 42 1 42 29
M  V30 43 1 43 11
M  V30 44 1 43 18
M  V30 45 1 44 8
M  V30 46 1 44 24
M  V30 47 1 45 3
M  V30 48 1 45 15
M  V30 49 1 46 10
M  V30 50 1 46 11
M  V30 51 1 46 22 CFG=1
M  V30 52 1 46 32
M  V30 53 2 47 30
M  V30 54 1 47 39
M  V30 55 1 1 48 CFG=3
M  V30 56 1 49 6
M  V30 57 1 8 50 CFG=1
M  V30 58 1 11 51 CFG=1
M  V30 59 1 52 13
M  V30 60 1 53 13
M  V30 61 1 54 13
M  V30 62 1 14 55 CFG=1
M  V30 63 1 17 56 CFG=1
M  V30 64 1 19 57 CFG=3
M  V30 65 1 58 21
M  V30 66 1 59 22
M  V30 67 1 23 60 CFG=3
M  V30 68 1 61 25
M  V30 69 1 62 25
M  V30 70 1 63 25
M  V30 71 1 64 26
M  V30 72 1 65 26
M  V30 73 1 66 26
M  V30 74 1 67 27
M  V30 75 1 68 27
M  V30 76 1 69 27
M  V30 77 1 70 29
M  V30 78 1 71 29
M  V30 79 1 72 30
M  V30 80 1 73 31
M  V30 81 1 74 31
M  V30 82 1 75 31
M  V30 83 1 76 34
M  V30 84 1 77 34
M  V30 85 1 78 34
M  V30 86 1 79 35
M  V30 87 1 80 35
M  V30 88 1 81 36
M  V30 89 1 82 36
M  V30 90 1 83 39
M  V30 91 1 84 40
M  V30 92 1 85 40
M  V30 93 1 86 42
M  V30 94 1 87 42
M  V30 95 1 88 44
M  V30 96 1 89 44
M  V30 97 1 90 45
M  V30 98 1 91 45
M  V30 99 1 92 47
M  V30 END BOND
M  V30 END CTAB
M  END
>  <i_epik_Tot_Q>  (1) 
1

>  <i_epik_Tot_abs_Q>  (1) 
1

>  <i_i_glide_confnum>  (1) 
3

>  <i_i_glide_lignum>  (1) 
121

>  <i_i_glide_posenum>  (1) 
53

>  <i_i_glide_rotatable_bonds>  (1) 
4

>  <i_lp_mmshare_version>  (1) 
72125

>  <i_m_source_file_index>  (1) 
75

>  <i_f3d_flags>  (1) 
0

>  <num_sample>  (1) 
100

>  <b_lp_Chiralities_Consistent>  (1) 
1

>  <r_epik_Charging_Adjusted_Penalty>  (1) 
0

>  <r_epik_Ionization_Penalty>  (1) 
2.279428951435475e-07

>  <r_epik_Ionization_Penalty_Charging>  (1) 
0

>  <r_epik_Ionization_Penalty_Neutral>  (1) 
2.279428951435475e-07

>  <r_epik_State_Penalty>  (1) 
-0

>  <r_glide_ring_energy>  (1) 
0

>  <r_i_docking_score>  (1) 
-1.8131179961235502

>  <r_i_glide_ecoul>  (1) 
0.87556426264852183

>  <r_i_glide_eff_state_penalty>  (1) 
-0

>  <r_i_glide_einternal>  (1) 
4.1821284258277398

>  <r_i_glide_emodel>  (1) 
-18.355729041799535

>  <r_i_glide_emodel_strain>  (1) 
0

>  <r_i_glide_energy>  (1) 
-18.670550273160423

>  <r_i_glide_erotb>  (1) 
0.046727806610761473

>  <r_i_glide_esite>  (1) 
0

>  <r_i_glide_evdw>  (1) 
-19.546114535808943

>  <r_i_glide_gscore>  (1) 
-1.8131179961235502

>  <r_i_glide_gscore_strain>  (1) 
0

>  <r_i_glide_hbond>  (1) 
0

>  <r_i_glide_ligand_efficiency>  (1) 
-0.038576978640926601

>  <r_i_glide_ligand_efficiency_ln>  (1) 
-0.37382738527056031

>  <r_i_glide_ligand_efficiency_sa>  (1) 
-0.13921760661232932

>  <r_i_glide_lipo>  (1) 
-0.91804921926191685

>  <r_i_glide_metal>  (1) 
-0

>  <r_i_glide_rewards>  (1) 
-0.0958254960792259

>  <r_lp_Energy>  (1) 
145.95767599999999

>  <r_lp_tautomer_probability>  (1) 
1

>  <s_epik_Chemistry_Notes>  (1) 
This compound has an ester and may undergo hydrolysis at high or low pH.

>  <s_epik_cmdline>  (1) 
J2VwaWtfcHl0aG9uJywgJy1waHQnLCAnMS4wJywgJy1waCcsICc3LjQnLCAnLXRuJywgJzgnLCAnLW1hJywgJzUwMCcsICctaW1hZScsICc8aW5maWxlLm1hZT4nLCAnLW9tYWUnLCAnPG91dGZpbGUubWFlPic=

>  <s_epik_input>  (1) 
W0NIM11bQ0BASF0xW0NIMl1bQ0BIXShDMihGKUYpW0NASF0zW0NAXTQoW0NIM10pW0NAQF0xKFtPSF0pQzQoW09IXSlbQ0BIXShbQ0BASF0oW09IXSlbQ0gzXSlPW0NAQF0oTzUpKFtDSDNdKVtDQEBdNShbQ0BdMjM2KVtDSDJdW1MrXShbQ0gzXSlbQ0gyXVtDQEhdN04oQyg9TylPW0NIMl1bQ0BASF02W0NIM10pQzg9QyhbQ0gyXVtDSDJdNylbQ0gyXUMoQyNOKT1bQ0hdW0NIXT1bQ0hdOA==

>  <s_glide_docking_method>  (1) 
confgen

>  <s_i_glide_gridfile>  (1) 
gpcr_drd2_6luq_protein_autoprepared_prepared

>  <s_lp_Force_Field>  (1) 
S-OPLS

>  <s_lp_Variant>  (1) 
DiffSBDD_74-1

>  <s_m_source_file>  (1) 
generated_generic_title2_ligand_DiffSBDD_2026-06-23_prepared.sdf

>  <GenAI_Model>  (1) 
DiffSBDD

>  <Protein>  (1) 
generic_title2

$$$$
DiffSBDD_42
     RDKit          3D

  0  0  0  0  0  0  0  0  0  0999 V3000
M  V30 BEGIN CTAB
M  V30 COUNTS 66 71 0 0 1
M  V30 BEGIN ATOM
M  V30 1 C 20.992834 16.167686 -18.691018 0
M  V30 2 C 21.253392 18.721700 -15.934878 0 CFG=2
M  V30 3 C 22.199698 17.497417 -20.787882 0 CFG=2
M  V30 4 C 22.696705 18.799650 -20.246835 0
M  V30 5 C 21.015896 17.752966 -18.446725 0 CFG=1
M  V30 6 N 20.766099 20.595619 -9.591728 0
M  V30 7 C 19.505751 19.967231 -14.321149 0 CFG=2
M  V30 8 C 20.602007 17.718858 -20.849066 0
M  V30 9 C 22.466537 16.601205 -17.082218 0
M  V30 10 C 20.817098 19.554742 -13.626644 0 CFG=2
M  V30 11 F 20.901460 17.655979 -9.621040 0
M  V30 12 C 21.419026 18.364704 -14.425602 0 CFG=1
M  V30 13 S 19.778383 19.777497 -16.090566 0
M  V30 14 O 21.798261 20.155824 -18.568276 0
M  V30 15 C 19.911936 18.078917 -19.452106 0
M  V30 16 C 22.004992 18.412513 -9.981069 0
M  V30 17 C 20.649512 19.291386 -12.117551 0
M  V30 18 C 20.494731 19.585390 -5.992435 0
M  V30 19 C 21.879962 19.298521 -11.283543 0
M  V30 20 C 22.934281 16.343514 -19.913420 0
M  V30 21 C 21.169108 17.523312 -16.928195 0 CFG=1
M  V30 22 C 21.840162 19.870698 -10.129623 0
M  V30 23 C 20.835817 16.993823 -14.009593 0
M  V30 24 C 19.415467 20.390251 -5.582698 0
M  V30 25 C 22.388357 15.871049 -18.488462 0 CFG=2
M  V30 26 C 18.793469 21.254463 -6.501288 0
M  V30 27 O 19.523130 19.073713 -11.661141 0
M  V30 28 C 20.327616 20.510601 -8.253429 0
M  V30 29 C 22.189861 18.817187 -18.811593 0 CFG=2
M  V30 30 C 20.953591 19.641758 -7.322759 0
M  V30 31 F 23.273452 17.948350 -9.684406 0
M  V30 32 C 19.039080 21.391144 -13.980832 0
M  V30 33 C 19.248940 21.316541 -7.832337 0
M  V30 34 H 20.353764 15.591485 -18.015385 0
M  V30 35 H 20.650498 15.721131 -19.622746 0
M  V30 36 H 22.103781 19.355785 -16.180043 0
M  V30 37 H 22.558308 17.402105 -21.813512 0
M  V30 38 H 22.313873 19.630528 -20.843540 0
M  V30 39 H 23.784849 18.870825 -20.284148 0
M  V30 40 H 20.417341 21.399560 -10.092965 0
M  V30 41 H 18.713531 19.263619 -14.063360 0
M  V30 42 H 20.381628 18.527482 -21.547466 0
M  V30 43 H 20.119942 16.855339 -21.309111 0
M  V30 44 H 22.463874 15.839933 -16.304392 0
M  V30 45 H 23.413539 17.120843 -16.942778 0
M  V30 46 H 21.511133 20.390223 -13.725355 0
M  V30 47 H 22.488098 18.316095 -14.213637 0
M  V30 48 H 20.993542 20.322148 -19.034879 0
M  V30 49 H 19.613662 19.125919 -19.410235 0
M  V30 50 H 19.000864 17.501502 -19.287639 0
M  V30 51 H 20.972802 18.923618 -5.285163 0
M  V30 52 H 22.908263 15.453007 -20.543539 0
M  V30 53 H 23.998613 16.562699 -19.823172 0
M  V30 54 H 20.314980 16.956155 -16.556627 0
M  V30 55 H 19.775172 16.933579 -14.217956 0
M  V30 56 H 21.314907 16.164198 -14.521196 0
M  V30 57 H 20.971296 16.790022 -12.948857 0
M  V30 58 H 19.064942 20.344573 -4.561948 0
M  V30 59 H 22.565046 14.801690 -18.365692 0
M  V30 60 H 17.965676 21.872016 -6.185111 0
M  V30 61 H 23.082978 18.711991 -18.203718 0
M  V30 62 H 21.784132 19.026220 -7.619375 0
M  V30 63 H 18.810199 21.492078 -12.919921 0
M  V30 64 H 19.802852 22.128193 -14.230509 0
M  V30 65 H 18.135678 21.648144 -14.535143 0
M  V30 66 H 18.768216 21.983083 -8.533477 0
M  V30 END ATOM
M  V30 BEGIN BOND
M  V30 1 1 4 3
M  V30 2 1 5 1
M  V30 3 1 8 3
M  V30 4 1 10 7
M  V30 5 1 12 2
M  V30 6 1 12 10
M  V30 7 1 13 2
M  V30 8 1 13 7
M  V30 9 1 5 15 CFG=1
M  V30 10 1 15 8
M  V30 11 1 16 11
M  V30 12 1 17 10
M  V30 13 1 19 16
M  V30 14 1 19 17
M  V30 15 1 20 3
M  V30 16 1 21 2
M  V30 17 1 21 5
M  V30 18 1 21 9
M  V30 19 1 22 6
M  V30 20 1 22 16
M  V30 21 2 22 19
M  V30 22 1 23 12
M  V30 23 2 24 18
M  V30 24 1 25 1
M  V30 25 1 25 9
M  V30 26 1 25 20
M  V30 27 1 26 24
M  V30 28 2 27 17
M  V30 29 1 28 6
M  V30 30 1 29 4
M  V30 31 1 29 5
M  V30 32 1 29 14
M  V30 33 1 30 18
M  V30 34 2 30 28
M  V30 35 1 31 16
M  V30 36 1 32 7
M  V30 37 2 33 26
M  V30 38 1 33 28
M  V30 39 1 34 1
M  V30 40 1 35 1
M  V30 41 1 2 36 CFG=3
M  V30 42 1 3 37 CFG=3
M  V30 43 1 38 4
M  V30 44 1 39 4
M  V30 45 1 40 6
M  V30 46 1 7 41 CFG=1
M  V30 47 1 42 8
M  V30 48 1 43 8
M  V30 49 1 44 9
M  V30 50 1 45 9
M  V30 51 1 10 46 CFG=1
M  V30 52 1 12 47 CFG=1
M  V30 53 1 48 14
M  V30 54 1 49 15
M  V30 55 1 50 15
M  V30 56 1 51 18
M  V30 57 1 52 20
M  V30 58 1 53 20
M  V30 59 1 21 54 CFG=1
M  V30 60 1 55 23
M  V30 61 1 56 23
M  V30 62 1 57 23
M  V30 63 1 58 24
M  V30 64 1 25 59 CFG=1
M  V30 65 1 60 26
M  V30 66 1 29 61 CFG=1
M  V30 67 1 62 30
M  V30 68 1 63 32
M  V30 69 1 64 32
M  V30 70 1 65 32
M  V30 71 1 66 33
M  V30 END BOND
M  V30 END CTAB
M  END
>  <i_epik_Tot_Q>  (1) 
0

>  <i_epik_Tot_abs_Q>  (1) 
0

>  <i_i_glide_confnum>  (1) 
49

>  <i_i_glide_lignum>  (1) 
68

>  <i_i_glide_posenum>  (1) 
306

>  <i_i_glide_rotatable_bonds>  (1) 
6

>  <i_lp_mmshare_version>  (1) 
72125

>  <i_m_source_file_index>  (1) 
43

>  <i_f3d_flags>  (1) 
0

>  <num_sample>  (1) 
100

>  <b_lp_Chiralities_Consistent>  (1) 
1

>  <r_epik_Charging_Adjusted_Penalty>  (1) 
0

>  <r_epik_Ionization_Penalty>  (1) 
0.00038533319757004503

>  <r_epik_Ionization_Penalty_Charging>  (1) 
0

>  <r_epik_Ionization_Penalty_Neutral>  (1) 
0.00038533319757004503

>  <r_epik_State_Penalty>  (1) 
-0

>  <r_glide_ring_energy>  (1) 
0

>  <r_i_docking_score>  (1) 
-1.750586747268017

>  <r_i_glide_ecoul>  (1) 
-0.5987969819119412

>  <r_i_glide_eff_state_penalty>  (1) 
-0

>  <r_i_glide_einternal>  (1) 
6.365320514414698

>  <r_i_glide_emodel>  (1) 
-17.793970018560607

>  <r_i_glide_emodel_strain>  (1) 
0.0078132158566859289

>  <r_i_glide_energy>  (1) 
-18.999548839505689

>  <r_i_glide_erotb>  (1) 
0.45088358732322803

>  <r_i_glide_esite>  (1) 
0

>  <r_i_glide_evdw>  (1) 
-18.400751857593747

>  <r_i_glide_gscore>  (1) 
-1.750586747268017

>  <r_i_glide_gscore_strain>  (1) 
0

>  <r_i_glide_hbond>  (1) 
0

>  <r_i_glide_ligand_efficiency>  (1) 
-0.053048083250545969

>  <r_i_glide_ligand_efficiency_ln>  (1) 
-0.38932142853932733

>  <r_i_glide_ligand_efficiency_sa>  (1) 
-0.1701535481666028

>  <r_i_glide_lipo>  (1) 
-0.73449084593322966

>  <r_i_glide_metal>  (1) 
-0

>  <r_i_glide_rewards>  (1) 
-0.4571223484915366

>  <r_lp_Energy>  (1) 
137.051188

>  <r_lp_tautomer_probability>  (1) 
1

>  <s_epik_cmdline>  (1) 
J2VwaWtfcHl0aG9uJywgJy1waHQnLCAnMS4wJywgJy1waCcsICc3LjQnLCAnLXRuJywgJzgnLCAnLW1hJywgJzUwMCcsICctaW1hZScsICc8aW5maWxlLm1hZT4nLCAnLW9tYWUnLCAnPG91dGZpbGUubWFlPic=

>  <s_epik_input>  (1) 
W09IXVtDQEBIXTFbQ0gyXVtDQEhdKFtDSDJdW0NIMl0yKVtDSDJdW0NASF0oW0NIMl1DMTIzKVtDSDJdW0NASF0zW0NAQEhdNFtDQEhdKFtDSDNdKVtDQEBIXShbQ0BIXShTNClbQ0gzXSlDKD1PKUMoQzUoRilGKT1DNVtOSF1jNltjSF1bY0hdW2NIXVtjSF1bY0hdNg==

>  <s_glide_docking_method>  (1) 
confgen

>  <s_i_glide_gridfile>  (1) 
gpcr_drd2_6luq_protein_autoprepared_prepared

>  <s_lp_Force_Field>  (1) 
S-OPLS

>  <s_lp_Variant>  (1) 
DiffSBDD_42-1

>  <s_m_source_file>  (1) 
generated_generic_title2_ligand_DiffSBDD_2026-06-23_prepared.sdf

>  <GenAI_Model>  (1) 
DiffSBDD

>  <Protein>  (1) 
generic_title2

$$$$
DiffSBDD_32
     RDKit          3D

  0  0  0  0  0  0  0  0  0  0999 V3000
M  V30 BEGIN CTAB
M  V30 COUNTS 75 78 0 0 1
M  V30 BEGIN ATOM
M  V30 1 O 7.794453 2.873822 -18.131066 0
M  V30 2 C 9.234281 5.385143 -10.844643 0 CFG=1
M  V30 3 F 11.307828 5.857056 -18.714759 0
M  V30 4 O 8.094797 0.252256 -15.308185 0
M  V30 5 O 7.485055 5.653820 -14.711051 0
M  V30 6 C 6.702233 5.749804 -11.297639 0
M  V30 7 C 10.548642 0.207892 -17.804291 0
M  V30 8 C 7.692934 0.231065 -18.408704 0 CFG=1
M  V30 9 O 10.574204 2.514984 -18.286663 0
M  V30 10 O 10.227341 4.201335 -16.775353 0
M  V30 11 C 7.164761 1.163794 -15.864341 0 CFG=1
M  V30 12 C 5.374872 5.295916 -13.450804 0
M  V30 13 C 8.149656 6.248768 -11.496967 0
M  V30 14 O 7.375406 3.499767 -16.765624 0
M  V30 15 S 6.857161 0.292974 -20.015296 0 CHG=-1
M  V30 16 C 5.820584 6.295789 -12.376494 0
M  V30 17 C 13.036763 6.482737 -16.240219 0
M  V30 18 C 9.344197 5.615829 -9.320118 0
M  V30 19 C 8.333115 1.558132 -18.015216 0 CFG=2
M  V30 20 C 13.813170 5.490719 -17.093904 0 CFG=2
M  V30 21 O 13.375124 7.807123 -16.590840 0
M  V30 22 C 5.442610 7.582781 -12.385024 0
M  V30 23 F 15.368626 4.449605 -19.185824 0
M  V30 24 C 8.904629 3.484993 -12.642967 0
M  V30 25 O 14.076531 3.835492 -18.967323 0
M  V30 26 C 13.194032 4.583206 -18.150394 0 CFG=2
M  V30 27 C 6.848393 3.255340 -14.332382 0 CFG=1
M  V30 28 C 7.531372 2.654094 -15.598196 0 CFG=1
M  V30 29 C 11.733068 4.596433 -18.620128 0 CFG=1
M  V30 30 C 9.974016 6.961917 -8.931623 0
M  V30 31 N 13.444495 4.127527 -16.785058 0
M  V30 32 C 7.042315 1.023769 -17.348290 0 CFG=1
M  V30 33 C 9.015235 3.897483 -11.160111 0
M  V30 34 C 10.758279 3.757541 -17.790737 0
M  V30 35 C 9.814210 1.540832 -17.569240 0 CFG=1
M  V30 36 C 7.558050 2.810487 -13.025880 0
M  V30 37 C 6.424163 4.757863 -14.465939 0 CFG=2
M  V30 38 H 10.175406 5.678036 -11.300097 0
M  V30 39 H 7.774273 -0.629804 -15.442893 0
M  V30 40 H 7.124105 6.516946 -14.839330 0
M  V30 41 H 6.570969 4.684042 -11.333301 0
M  V30 42 H 6.313623 5.990236 -10.312794 0
M  V30 43 H 10.142245 -0.590459 -17.185327 0
M  V30 44 H 10.480529 -0.104518 -18.846995 0
M  V30 45 H 11.606061 0.296877 -17.556673 0
M  V30 46 H 8.104096 -0.742517 -18.151735 0
M  V30 47 H 6.186375 0.925207 -15.447516 0
M  V30 48 H 4.887041 4.455432 -12.956700 0
M  V30 49 H 4.580850 5.769503 -14.023405 0
M  V30 50 H 8.228616 7.288422 -11.184989 0
M  V30 51 H 8.379074 6.290805 -12.554951 0
M  V30 52 H 13.294903 6.324819 -15.192512 0
M  V30 53 H 11.959794 6.342612 -16.334315 0
M  V30 54 H 8.360084 5.521112 -8.857786 0
M  V30 55 H 9.954009 4.829346 -8.876322 0
M  V30 56 H 14.895691 5.597596 -17.077029 0
M  V30 57 H 12.950390 8.038693 -17.405341 0
M  V30 58 H 4.809066 7.976495 -13.161645 0
M  V30 59 H 5.769622 8.261128 -11.608210 0
M  V30 60 H 9.691330 2.746383 -12.785024 0
M  V30 61 H 9.160923 4.304335 -13.310834 0
M  V30 62 H 5.896964 2.740441 -14.241765 0
M  V30 63 H 8.575438 2.726705 -15.375736 0
M  V30 64 H 11.706096 4.221730 -19.643515 0
M  V30 65 H 10.061362 7.041592 -7.848277 0
M  V30 66 H 10.973680 7.067220 -9.351209 0
M  V30 67 H 9.375495 7.806545 -9.271423 0
M  V30 68 H 12.578280 4.130332 -16.250691 0
M  V30 69 H 6.082999 1.421404 -17.682549 0
M  V30 70 H 8.136389 3.590258 -10.624822 0
M  V30 71 H 9.775415 3.298504 -10.679736 0
M  V30 72 H 9.882136 1.743329 -16.506921 0
M  V30 73 H 6.827625 2.869700 -12.226309 0
M  V30 74 H 7.744593 1.737098 -13.081696 0
M  V30 75 H 5.875195 4.801439 -15.404354 0
M  V30 END ATOM
M  V30 BEGIN BOND
M  V30 1 1 11 4
M  V30 2 1 13 2
M  V30 3 1 13 6
M  V30 4 1 14 1
M  V30 5 1 15 8
M  V30 6 1 16 6
M  V30 7 1 16 12
M  V30 8 1 18 2
M  V30 9 1 19 1 CFG=3
M  V30 10 1 19 8
M  V30 11 1 20 17
M  V30 12 1 21 17
M  V30 13 2 22 16
M  V30 14 1 25 23
M  V30 15 1 26 20
M  V30 16 1 26 25 CFG=3
M  V30 17 1 28 11
M  V30 18 1 28 14
M  V30 19 1 28 27
M  V30 20 1 29 3
M  V30 21 1 29 26
M  V30 22 1 30 18
M  V30 23 1 31 20
M  V30 24 1 31 26
M  V30 25 1 32 8
M  V30 26 1 32 11
M  V30 27 1 32 19
M  V30 28 1 33 2
M  V30 29 1 33 24
M  V30 30 1 34 9
M  V30 31 2 34 10
M  V30 32 1 34 29
M  V30 33 1 35 7
M  V30 34 1 35 9
M  V30 35 1 35 19
M  V30 36 1 36 24
M  V30 37 1 36 27
M  V30 38 1 37 5
M  V30 39 1 37 12
M  V30 40 1 37 27
M  V30 41 1 2 38 CFG=3
M  V30 42 1 39 4
M  V30 43 1 40 5
M  V30 44 1 41 6
M  V30 45 1 42 6
M  V30 46 1 43 7
M  V30 47 1 44 7
M  V30 48 1 45 7
M  V30 49 1 8 46 CFG=1
M  V30 50 1 11 47 CFG=1
M  V30 51 1 48 12
M  V30 52 1 49 12
M  V30 53 1 50 13
M  V30 54 1 51 13
M  V30 55 1 52 17
M  V30 56 1 53 17
M  V30 57 1 54 18
M  V30 58 1 55 18
M  V30 59 1 20 56 CFG=3
M  V30 60 1 57 21
M  V30 61 1 58 22
M  V30 62 1 59 22
M  V30 63 1 60 24
M  V30 64 1 61 24
M  V30 65 1 27 62 CFG=1
M  V30 66 1 28 63 CFG=1
M  V30 67 1 29 64 CFG=3
M  V30 68 1 65 30
M  V30 69 1 66 30
M  V30 70 1 67 30
M  V30 71 1 68 31
M  V30 72 1 32 69 CFG=3
M  V30 73 1 70 33
M  V30 74 1 71 33
M  V30 75 1 35 72 CFG=1
M  V30 76 1 73 36
M  V30 77 1 74 36
M  V30 78 1 37 75 CFG=3
M  V30 END BOND
M  V30 END CTAB
M  END
>  <i_epik_Tot_Q>  (1) 
-1

>  <i_epik_Tot_abs_Q>  (1) 
1

>  <i_i_glide_confnum>  (1) 
1

>  <i_i_glide_lignum>  (1) 
55

>  <i_i_glide_posenum>  (1) 
303

>  <i_i_glide_rotatable_bonds>  (1) 
12

>  <i_lp_mmshare_version>  (1) 
72125

>  <i_m_source_file_index>  (1) 
33

>  <i_f3d_flags>  (1) 
0

>  <num_sample>  (1) 
100

>  <b_lp_Chiralities_Consistent>  (1) 
1

>  <r_epik_Charging_Adjusted_Penalty>  (1) 
2.2826120202495259

>  <r_epik_Ionization_Penalty>  (1) 
1.1413067509942614

>  <r_epik_Ionization_Penalty_Charging>  (1) 
1.1413060101247627

>  <r_epik_Ionization_Penalty_Neutral>  (1) 
7.4086949864391441e-07

>  <r_epik_State_Penalty>  (1) 
1.141306010124763

>  <r_glide_ring_energy>  (1) 
0

>  <r_i_docking_score>  (1) 
-1.744178088328161

>  <r_i_glide_ecoul>  (1) 
-1.8183599966936839

>  <r_i_glide_eff_state_penalty>  (1) 
1.141306010124763

>  <r_i_glide_einternal>  (1) 
6.3149579234911641

>  <r_i_glide_emodel>  (1) 
-21.59274753530854

>  <r_i_glide_emodel_strain>  (1) 
3.7014999049948898

>  <r_i_glide_energy>  (1) 
-25.596289304152116

>  <r_i_glide_erotb>  (1) 
0.40941976569591371

>  <r_i_glide_esite>  (1) 
-0.0010282163364143803

>  <r_i_glide_evdw>  (1) 
-23.777929307458432

>  <r_i_glide_gscore>  (1) 
-2.885484098452924

>  <r_i_glide_gscore_strain>  (1) 
0

>  <r_i_glide_hbond>  (1) 
0

>  <r_i_glide_ligand_efficiency>  (1) 
-0.047139948333193543

>  <r_i_glide_ligand_efficiency_ln>  (1) 
-0.3782713380225689

>  <r_i_glide_ligand_efficiency_sa>  (1) 
-0.15708076592132877

>  <r_i_glide_lipo>  (1) 
-1.4920911936976176

>  <r_i_glide_metal>  (1) 
-0

>  <r_i_glide_rewards>  (1) 
-0.34013398923783172

>  <r_lp_Energy>  (1) 
53.843353

>  <s_epik_Chemistry_Notes>  (1) 
This compound has an ester and may undergo hydrolysis at high or low pH.

>  <s_epik_cmdline>  (1) 
J2VwaWtfcHl0aG9uJywgJy1waHQnLCAnMS4wJywgJy1waCcsICc3LjQnLCAnLXRuJywgJzgnLCAnLW1hJywgJzUwMCcsICctaW1hZScsICc8aW5maWxlLm1hZT4nLCAnLW9tYWUnLCAnPG91dGZpbGUubWFlPic=

>  <s_epik_input>  (1) 
W0NIM11bQ0gyXVtDQEBIXTFbQ0gyXVtDSDJdQyg9W0NIMl0pW0NIMl1bQ0BASF0oW09IXSlbQ0BIXShbQ0gyXVtDSDJdW0NIMl0xKVtDQEhdKE9PMilbQ0BIXShbT0hdKVtDQEhdKFtDQEhdM1tTSF0pW0NAXTIzW0NAQEhdKFtDSDNdKU9DKD1PKVtDQEBIXShGKUM0KE9GKVtDQEhdKFtOSF00KVtDSDJdW09IXQ==

>  <s_glide_docking_method>  (1) 
confgen

>  <s_i_glide_gridfile>  (1) 
gpcr_drd2_6luq_protein_autoprepared_prepared

>  <s_lp_Force_Field>  (1) 
S-OPLS

>  <s_lp_Variant>  (1) 
DiffSBDD_32-2

>  <s_m_source_file>  (1) 
generated_generic_title2_ligand_DiffSBDD_2026-06-23_prepared.sdf

>  <GenAI_Model>  (1) 
DiffSBDD

>  <Protein>  (1) 
generic_title2

$$$$
DiffSBDD_69
     RDKit          3D

  0  0  0  0  0  0  0  0  0  0999 V3000
M  V30 BEGIN CTAB
M  V30 COUNTS 68 71 0 0 1
M  V30 BEGIN ATOM
M  V30 1 C 17.256311 8.039010 -19.204737 0
M  V30 2 C 13.647546 4.499085 -18.296370 0 CFG=1
M  V30 3 C 12.300543 2.336045 -21.749020 0
M  V30 4 C 14.570025 7.837361 -17.796601 0 CFG=1
M  V30 5 C 18.634314 6.809547 -21.053007 0
M  V30 6 C 12.628193 5.932139 -16.352279 0
M  V30 7 F 19.908470 5.646262 -22.637416 0
M  V30 8 C 18.569072 8.015023 -20.098020 0 CFG=1
M  V30 9 C 12.853156 5.794742 -17.875653 0 CFG=1
M  V30 10 C 15.764198 6.909862 -17.585480 0
M  V30 11 C 12.694385 1.898956 -20.344781 0
M  V30 12 S 14.975423 9.428811 -18.572402 0
M  V30 13 C 17.016428 9.886454 -20.383604 0
M  V30 14 C 19.940162 6.726326 -21.857835 0
M  V30 15 C 13.771696 2.670426 -21.944611 0
M  V30 16 C 16.472883 9.090361 -19.422230 0
M  V30 17 C 16.360446 0.325033 -21.176681 0
M  V30 18 C 13.949064 2.819611 -20.398481 0
M  V30 19 C 18.151498 9.363435 -20.793405 0
M  V30 20 F 20.091424 7.803491 -22.627717 0
M  V30 21 C 13.078823 3.287627 -17.512831 0
M  V30 22 C 16.382098 1.796919 -20.730855 0
M  V30 23 C 16.897846 -0.631334 -20.107356 0
M  V30 24 C 13.291858 7.150853 -20.007423 0
M  V30 25 C 14.799799 5.264735 -20.505291 0
M  V30 26 F 20.982010 6.626479 -21.032047 0
M  V30 27 N 14.498964 6.571500 -20.566596 0
M  V30 28 C 13.747950 4.296782 -19.864115 0 CFG=2
M  V30 29 C 13.317946 7.162324 -18.463225 0 CFG=2
M  V30 30 C 15.238296 2.196752 -19.768247 0
M  V30 31 O 15.860331 4.826813 -20.942511 0
M  V30 32 C 16.946012 7.004648 -18.229036 0
M  V30 33 H 14.668063 4.578000 -17.937982 0
M  V30 34 H 11.922575 1.538587 -22.389805 0
M  V30 35 H 11.649376 3.210976 -21.761838 0
M  V30 36 H 14.265616 8.114912 -16.787400 0
M  V30 37 H 18.531959 5.892384 -20.472081 0
M  V30 38 H 17.781315 6.828258 -21.732785 0
M  V30 39 H 13.557839 5.856372 -15.788473 0
M  V30 40 H 12.168527 6.887897 -16.100816 0
M  V30 41 H 11.946201 5.168085 -15.979906 0
M  V30 42 H 19.464063 8.131339 -19.486378 0
M  V30 43 H 11.850099 5.648799 -18.281047 0
M  V30 44 H 15.624806 6.116149 -16.869170 0
M  V30 45 H 12.945720 0.837471 -20.302713 0
M  V30 46 H 11.935371 2.142783 -19.605132 0
M  V30 47 H 16.583270 10.805847 -20.750542 0
M  V30 48 H 13.938819 3.570541 -22.536180 0
M  V30 49 H 14.298284 1.826797 -22.389251 0
M  V30 50 H 15.353881 0.024674 -21.467898 0
M  V30 51 H 16.975878 0.216443 -22.070344 0
M  V30 52 H 18.776919 9.809821 -21.552455 0
M  V30 53 H 12.001509 3.191365 -17.644469 0
M  V30 54 H 13.536276 2.339921 -17.777180 0
M  V30 55 H 13.261914 3.384849 -16.442811 0
M  V30 56 H 16.391359 2.441384 -21.608584 0
M  V30 57 H 17.336823 1.993505 -20.241312 0
M  V30 58 H 16.962159 -1.644631 -20.503430 0
M  V30 59 H 17.896383 -0.340911 -19.780000 0
M  V30 60 H 16.252556 -0.660146 -19.229560 0
M  V30 61 H 12.389182 6.682533 -20.398976 0
M  V30 62 H 13.236205 8.174732 -20.377652 0
M  V30 63 H 15.165615 7.201652 -20.988262 0
M  V30 64 H 12.776563 4.591516 -20.253364 0
M  V30 65 H 12.505363 7.848916 -18.216812 0
M  V30 66 H 15.677195 2.885231 -19.047778 0
M  V30 67 H 14.978376 1.327552 -19.164718 0
M  V30 68 H 17.705253 6.268985 -18.008975 0
M  V30 END ATOM
M  V30 BEGIN BOND
M  V30 1 1 8 1
M  V30 2 1 8 5
M  V30 3 1 9 2
M  V30 4 1 9 6
M  V30 5 1 10 4
M  V30 6 1 11 3
M  V30 7 1 12 4
M  V30 8 1 14 5
M  V30 9 1 14 7
M  V30 10 1 15 3
M  V30 11 2 16 1
M  V30 12 1 16 12
M  V30 13 1 16 13
M  V30 14 1 18 11
M  V30 15 1 18 15
M  V30 16 1 19 8
M  V30 17 2 19 13
M  V30 18 1 20 14
M  V30 19 1 21 2
M  V30 20 1 22 17
M  V30 21 1 23 17
M  V30 22 1 26 14
M  V30 23 1 27 24
M  V30 24 1 27 25
M  V30 25 1 28 2
M  V30 26 1 28 18
M  V30 27 1 28 25
M  V30 28 1 29 4
M  V30 29 1 29 9
M  V30 30 1 29 24
M  V30 31 1 30 18
M  V30 32 1 30 22
M  V30 33 2 31 25
M  V30 34 1 32 1
M  V30 35 2 32 10
M  V30 36 1 2 33 CFG=1
M  V30 37 1 34 3
M  V30 38 1 35 3
M  V30 39 1 4 36 CFG=1
M  V30 40 1 37 5
M  V30 41 1 38 5
M  V30 42 1 39 6
M  V30 43 1 40 6
M  V30 44 1 41 6
M  V30 45 1 8 42 CFG=1
M  V30 46 1 9 43 CFG=3
M  V30 47 1 44 10
M  V30 48 1 45 11
M  V30 49 1 46 11
M  V30 50 1 47 13
M  V30 51 1 48 15
M  V30 52 1 49 15
M  V30 53 1 50 17
M  V30 54 1 51 17
M  V30 55 1 52 19
M  V30 56 1 53 21
M  V30 57 1 54 21
M  V30 58 1 55 21
M  V30 59 1 56 22
M  V30 60 1 57 22
M  V30 61 1 58 23
M  V30 62 1 59 23
M  V30 63 1 60 23
M  V30 64 1 61 24
M  V30 65 1 62 24
M  V30 66 1 63 27
M  V30 67 1 28 64 CFG=3
M  V30 68 1 29 65 CFG=1
M  V30 69 1 66 30
M  V30 70 1 67 30
M  V30 71 1 68 32
M  V30 END BOND
M  V30 END CTAB
M  END
>  <i_epik_Tot_Q>  (1) 
0

>  <i_epik_Tot_abs_Q>  (1) 
0

>  <i_i_glide_confnum>  (1) 
123

>  <i_i_glide_lignum>  (1) 
112

>  <i_i_glide_posenum>  (1) 
368

>  <i_i_glide_rotatable_bonds>  (1) 
7

>  <i_lp_mmshare_version>  (1) 
72125

>  <i_m_source_file_index>  (1) 
70

>  <i_f3d_flags>  (1) 
0

>  <num_sample>  (1) 
100

>  <b_lp_Chiralities_Consistent>  (1) 
1

>  <r_epik_Charging_Adjusted_Penalty>  (1) 
0

>  <r_epik_Ionization_Penalty>  (1) 
2.8523950136144186e-08

>  <r_epik_Ionization_Penalty_Charging>  (1) 
0

>  <r_epik_Ionization_Penalty_Neutral>  (1) 
2.8523950136144186e-08

>  <r_epik_State_Penalty>  (1) 
-0

>  <r_glide_ring_energy>  (1) 
0.00015063106996441122

>  <r_i_docking_score>  (1) 
-1.7426783731900628

>  <r_i_glide_ecoul>  (1) 
-0.24918685132577928

>  <r_i_glide_eff_state_penalty>  (1) 
-0

>  <r_i_glide_einternal>  (1) 
8.2148360612911766

>  <r_i_glide_emodel>  (1) 
-19.619369273033513

>  <r_i_glide_emodel_strain>  (1) 
0.0070122830649665957

>  <r_i_glide_energy>  (1) 
-21.793717103748904

>  <r_i_glide_erotb>  (1) 
0.46147465592596376

>  <r_i_glide_esite>  (1) 
0

>  <r_i_glide_evdw>  (1) 
-21.544530252423126

>  <r_i_glide_gscore>  (1) 
-1.7426783731900628

>  <r_i_glide_gscore_strain>  (1) 
0

>  <r_i_glide_hbond>  (1) 
0

>  <r_i_glide_ligand_efficiency>  (1) 
-0.054458699162189463

>  <r_i_glide_ligand_efficiency_ln>  (1) 
-0.3902331913755841

>  <r_i_glide_ligand_efficiency_sa>  (1) 
-0.17289559267775853

>  <r_i_glide_lipo>  (1) 
-0.85608170002625184

>  <r_i_glide_metal>  (1) 
-0

>  <r_i_glide_rewards>  (1) 
-0.23346678876975127

>  <r_lp_Energy>  (1) 
50.695834999999995

>  <r_lp_tautomer_probability>  (1) 
1

>  <s_epik_cmdline>  (1) 
J2VwaWtfcHl0aG9uJywgJy1waHQnLCAnMS4wJywgJy1waCcsICc3LjQnLCAnLXRuJywgJzgnLCAnLW1hJywgJzUwMCcsICctaW1hZScsICc8aW5maWxlLm1hZT4nLCAnLW9tYWUnLCAnPG91dGZpbGUubWFlPic=

>  <s_epik_input>  (1) 
RkMoRikoRilbQ0gyXVtDQEhdMVtDSF09W0NIXUMoPUMxMilTW0NASF0oW0NIXT1bQ0hdMilbQ0BIXShbQ0BIXShbQ0gzXSlbQ0BIXTNbQ0gzXSlbQ0gyXVtOSF1DKD1PKVtDQEhdM0M0KFtDSDJdW0NIMl1bQ0gyXTQpW0NIMl1bQ0gyXVtDSDJdW0NIM10=

>  <s_glide_docking_method>  (1) 
confgen

>  <s_i_glide_gridfile>  (1) 
gpcr_drd2_6luq_protein_autoprepared_prepared

>  <s_lp_Force_Field>  (1) 
S-OPLS

>  <s_lp_Variant>  (1) 
DiffSBDD_69-1

>  <s_m_source_file>  (1) 
generated_generic_title2_ligand_DiffSBDD_2026-06-23_prepared.sdf

>  <GenAI_Model>  (1) 
DiffSBDD

>  <Protein>  (1) 
generic_title2

$$$$
DiffSBDD_90
     RDKit          3D

  0  0  0  0  0  0  0  0  0  0999 V3000
M  V30 BEGIN CTAB
M  V30 COUNTS 80 84 0 0 1
M  V30 BEGIN ATOM
M  V30 1 C 8.558586 2.343588 -18.808795 0
M  V30 2 C 9.539209 3.455743 -18.375418 0 CFG=1
M  V30 3 C 12.633377 1.631286 -17.722165 0
M  V30 4 C 6.747947 5.907497 -15.954291 0 CFG=2
M  V30 5 C 12.022312 3.720001 -17.525339 0
M  V30 6 C 13.533560 0.499994 -17.638838 0 CFG=2
M  V30 7 C 7.171732 5.709101 -19.827204 0 CFG=2
M  V30 8 O 6.248641 3.179150 -18.788543 0
M  V30 9 C 7.433023 3.104382 -19.547129 0 CFG=1
M  V30 10 C 7.218507 3.394579 -15.177123 0
M  V30 11 O 6.101390 5.611659 -11.540571 0
M  V30 12 C 10.929941 3.020867 -18.012370 0
M  V30 13 C 10.242109 4.587468 -20.724157 0 CFG=2
M  V30 14 O 5.356806 4.295908 -13.185033 0 CHG=-1
M  V30 15 O 5.463144 5.990540 -15.759982 0 CHG=-1
M  V30 16 C 6.727866 6.373739 -18.469402 0 CFG=2
M  V30 17 N 6.828830 5.416802 -17.340279 0 CHG=1
M  V30 18 N 7.954870 4.454071 -19.780110 0
M  V30 19 C 8.818669 6.391675 -11.778181 0
M  V30 20 C 5.303001 6.983520 -18.566904 0
M  V30 21 O 11.508955 3.964688 -20.713522 0
M  V30 22 O 5.166842 7.898811 -19.634647 0
M  V30 23 O 10.139831 7.792433 -21.013454 0
M  V30 24 C 10.159536 5.752090 -19.761585 0 CFG=1
M  V30 25 C 6.185466 5.070251 -12.660991 0
M  V30 26 C 7.973706 6.730066 -20.680668 0
M  V30 27 N 13.019503 2.797365 -17.378172 0
M  V30 28 O 9.032553 7.532392 -11.373201 0
M  V30 29 C 14.757017 1.366411 -17.059265 0
M  V30 30 N 11.364788 1.712882 -18.115595 0 CHG=1
M  V30 31 C 7.450329 4.910012 -14.975642 0 CFG=2
M  V30 32 O 13.068111 1.190233 -20.564560 0
M  V30 33 O 13.778564 -0.209252 -18.856217 0
M  V30 34 C 14.140844 0.516445 -19.994528 0
M  V30 35 C 8.947777 5.196585 -10.821540 0
M  V30 36 C 7.464484 5.396929 -13.509271 0
M  V30 37 C 9.386800 7.015930 -20.106381 0 CFG=2
M  V30 38 C 12.084946 0.336634 -21.129008 0
M  V30 39 N 8.501396 6.044813 -13.082512 0
M  V30 40 C 14.362923 2.921335 -16.919196 0
M  V30 41 C 9.366198 4.488792 -19.479803 0 CFG=1
M  V30 42 H 9.042995 1.681379 -19.526901 0
M  V30 43 H 8.209222 1.729036 -17.978573 0
M  V30 44 H 9.146163 3.918183 -17.472337 0
M  V30 45 H 7.373604 6.790217 -15.902369 0
M  V30 46 H 12.153559 4.765348 -17.280974 0
M  V30 47 H 13.135482 -0.177655 -16.885044 0
M  V30 48 H 6.258400 5.479960 -20.378078 0
M  V30 49 H 5.662293 2.492702 -19.077092 0
M  V30 50 H 7.199189 2.627869 -20.500025 0
M  V30 51 H 7.764684 2.816007 -14.431469 0
M  V30 52 H 6.175565 3.117792 -15.104477 0
M  V30 53 H 7.555685 3.056071 -16.151677 0
M  V30 54 H 9.795468 4.671536 -21.713356 0
M  V30 55 H 7.401764 7.189586 -18.226496 0
M  V30 56 H 6.110199 4.714394 -17.452051 0
M  V30 57 H 5.058468 7.546241 -17.666700 0
M  V30 58 H 4.552564 6.199176 -18.667196 0
M  V30 59 H 11.879954 4.023507 -19.848033 0
M  V30 60 H 4.346916 8.359206 -19.525673 0
M  V30 61 H 9.669147 8.590341 -21.204170 0
M  V30 62 H 11.042841 5.935996 -19.153346 0
M  V30 63 H 8.068321 6.337068 -21.694296 0
M  V30 64 H 7.428352 7.667108 -20.785996 0
M  V30 65 H 15.032211 0.979060 -16.077495 0
M  V30 66 H 15.647496 1.249943 -17.674668 0
M  V30 67 H 8.498913 4.987674 -15.269310 0
M  V30 68 H 14.920045 1.244831 -19.771576 0
M  V30 69 H 14.558946 -0.178848 -20.724776 0
M  V30 70 H 9.119966 4.259598 -11.352041 0
M  V30 71 H 9.781478 5.357222 -10.142398 0
M  V30 72 H 8.062953 5.092907 -10.195226 0
M  V30 73 H 9.304637 7.590224 -19.186896 0
M  V30 74 H 11.277527 0.940957 -21.543305 0
M  V30 75 H 12.499059 -0.269496 -21.934577 0
M  V30 76 H 11.652066 -0.326973 -20.380064 0
M  V30 77 H 14.917303 3.578348 -17.589513 0
M  V30 78 H 14.370290 3.293027 -15.893995 0
M  V30 79 H 10.808668 0.933205 -18.442047 0
M  V30 80 H 7.712560 4.950714 -17.443572 0
M  V30 END ATOM
M  V30 BEGIN BOND
M  V30 1 1 2 1
M  V30 2 1 6 3
M  V30 3 1 9 1
M  V30 4 1 9 8
M  V30 5 1 12 2
M  V30 6 2 12 5
M  V30 7 1 15 4
M  V30 8 1 16 7
M  V30 9 1 17 4
M  V30 10 1 17 16
M  V30 11 1 18 7
M  V30 12 1 18 9
M  V30 13 1 20 16
M  V30 14 1 21 13
M  V30 15 1 22 20
M  V30 16 1 24 13
M  V30 17 2 25 11
M  V30 18 1 25 14
M  V30 19 1 26 7
M  V30 20 1 27 3
M  V30 21 1 27 5
M  V30 22 2 28 19
M  V30 23 1 29 6
M  V30 24 2 30 3
M  V30 25 1 30 12
M  V30 26 1 31 4
M  V30 27 1 31 10
M  V30 28 1 33 6
M  V30 29 1 34 32
M  V30 30 1 34 33
M  V30 31 1 35 19
M  V30 32 1 36 25
M  V30 33 1 36 31
M  V30 34 1 37 23
M  V30 35 1 37 24
M  V30 36 1 37 26
M  V30 37 1 38 32
M  V30 38 1 39 19
M  V30 39 2 39 36
M  V30 40 1 40 27
M  V30 41 1 40 29
M  V30 42 1 41 2
M  V30 43 1 41 13
M  V30 44 1 41 18 CFG=3
M  V30 45 1 41 24
M  V30 46 1 42 1
M  V30 47 1 43 1
M  V30 48 1 2 44 CFG=1
M  V30 49 1 4 45 CFG=3
M  V30 50 1 46 5
M  V30 51 1 6 47 CFG=1
M  V30 52 1 7 48 CFG=3
M  V30 53 1 49 8
M  V30 54 1 9 50 CFG=3
M  V30 55 1 51 10
M  V30 56 1 52 10
M  V30 57 1 53 10
M  V30 58 1 13 54 CFG=3
M  V30 59 1 16 55 CFG=1
M  V30 60 1 56 17
M  V30 61 1 57 20
M  V30 62 1 58 20
M  V30 63 1 59 21
M  V30 64 1 60 22
M  V30 65 1 61 23
M  V30 66 1 24 62 CFG=1
M  V30 67 1 63 26
M  V30 68 1 64 26
M  V30 69 1 65 29
M  V30 70 1 66 29
M  V30 71 1 31 67 CFG=3
M  V30 72 1 68 34
M  V30 73 1 69 34
M  V30 74 1 70 35
M  V30 75 1 71 35
M  V30 76 1 72 35
M  V30 77 1 37 73 CFG=1
M  V30 78 1 74 38
M  V30 79 1 75 38
M  V30 80 1 76 38
M  V30 81 1 77 40
M  V30 82 1 78 40
M  V30 83 1 79 30
M  V30 84 1 80 17
M  V30 END BOND
M  V30 END CTAB
M  END
>  <i_epik_Tot_Q>  (1) 
0

>  <i_epik_Tot_abs_Q>  (1) 
4

>  <i_i_glide_confnum>  (1) 
1908

>  <i_i_glide_lignum>  (1) 
171

>  <i_i_glide_posenum>  (1) 
176

>  <i_i_glide_rotatable_bonds>  (1) 
16

>  <i_lp_mmshare_version>  (1) 
72125

>  <i_m_source_file_index>  (1) 
91

>  <i_f3d_flags>  (1) 
0

>  <num_sample>  (1) 
100

>  <b_lp_Chiralities_Consistent>  (1) 
1

>  <r_epik_Charging_Adjusted_Penalty>  (1) 
1.4758035429533554

>  <r_epik_Ionization_Penalty>  (1) 
0.33648449588267881

>  <r_epik_Ionization_Penalty_Charging>  (1) 
0.24231300703988756

>  <r_epik_Ionization_Penalty_Neutral>  (1) 
0.094171488842791265

>  <r_epik_State_Penalty>  (1) 
1.2334905359134678

>  <r_glide_ring_energy>  (1) 
0

>  <r_i_docking_score>  (1) 
-1.6757653571537647

>  <r_i_glide_ecoul>  (1) 
0.92405443592411673

>  <r_i_glide_eff_state_penalty>  (1) 
1.2334905359134678

>  <r_i_glide_einternal>  (1) 
19.361092198346135

>  <r_i_glide_emodel>  (1) 
-28.844659140382003

>  <r_i_glide_emodel_strain>  (1) 
0.28440994234310324

>  <r_i_glide_energy>  (1) 
-30.355968669913313

>  <r_i_glide_erotb>  (1) 
0.57888693115673628

>  <r_i_glide_esite>  (1) 
-0.03335467940424322

>  <r_i_glide_evdw>  (1) 
-31.280023105837429

>  <r_i_glide_gscore>  (1) 
-2.9092558930672325

>  <r_i_glide_gscore_strain>  (1) 
0

>  <r_i_glide_hbond>  (1) 
0

>  <r_i_glide_ligand_efficiency>  (1) 
-0.040872325784238162

>  <r_i_glide_ligand_efficiency_ln>  (1) 
-0.35551919721160569

>  <r_i_glide_ligand_efficiency_sa>  (1) 
-0.14093665842374967

>  <r_i_glide_lipo>  (1) 
-1.2391382748021198

>  <r_i_glide_metal>  (1) 
-0

>  <r_i_glide_rewards>  (1) 
-0.79025688011435202

>  <r_lp_Energy>  (1) 
73.410639000000003

>  <s_epik_Chemistry_Notes>  (1) 
This compound has an imine and may undergo hydrolysis. This compound contains an acetal/aminal-like group ( X-CH(R)-Y where X, Y are N, S, or O) that may be acid/base labile, releasing an aldehyde.

>  <s_epik_cmdline>  (1) 
J2VwaWtfcHl0aG9uJywgJy1waHQnLCAnMS4wJywgJy1waCcsICc3LjQnLCAnLXRuJywgJzgnLCAnLW1hJywgJzUwMCcsICctaW1hZScsICc8aW5maWxlLm1hZT4nLCAnLW9tYWUnLCAnPG91dGZpbGUubWFlPic=

>  <s_epik_input>  (1) 
W0NIM11PW0NIMl1PW0NASF0xW0NIMl1bQ0gyXW4oYzEyKVtjSF1jKG4yKVtDQEBIXTNbQ0gyXVtDQEBIXShbT0hdKU4oW0NAQF0zNDUpW0NASF0oW0NIMl1bQ0BIXShbT0hdKVtDQEBIXTVbQ0BIXTRbT0hdKVtDQEBIXShbQ0gyXVtPSF0pW05IXVtDQEBIXShbT0hdKVtDQEhdKFtDSDNdKUMoXEMoPU8pW09IXSk9TlxDKD1PKVtDSDNd

>  <s_glide_docking_method>  (1) 
confgen

>  <s_i_glide_gridfile>  (1) 
gpcr_drd2_6luq_protein_autoprepared_prepared

>  <s_lp_Force_Field>  (1) 
S-OPLS

>  <s_lp_Variant>  (1) 
DiffSBDD_90-6

>  <s_m_source_file>  (1) 
generated_generic_title2_ligand_DiffSBDD_2026-06-23_prepared.sdf

>  <GenAI_Model>  (1) 
DiffSBDD

>  <Protein>  (1) 
generic_title2

$$$$
DiffSBDD_87
     RDKit          3D

  0  0  0  0  0  0  0  0  0  0999 V3000
M  V30 BEGIN CTAB
M  V30 COUNTS 76 79 0 0 1
M  V30 BEGIN ATOM
M  V30 1 S 5.713788 4.123457 -19.806016 0
M  V30 2 C 10.975466 10.592554 -4.407885 0
M  V30 3 C 9.157404 7.697168 -8.116802 0
M  V30 4 C 11.507334 7.318939 -7.464710 0
M  V30 5 O 6.135490 7.615594 -20.374685 0
M  V30 6 C 9.112569 4.792364 -14.559318 0
M  V30 7 C 10.346566 6.319170 -12.357499 0
M  V30 8 C 4.968750 8.033510 -21.099025 0
M  V30 9 C 8.336843 4.842659 -19.266899 0
M  V30 10 C 8.417671 5.874060 -13.954539 0
M  V30 11 C 11.948069 6.225438 -5.082121 0
M  V30 12 C 5.380898 6.586811 -21.029465 0 CFG=2
M  V30 13 O 6.975424 3.952851 -17.423350 0
M  V30 14 C 10.949569 7.034019 -11.323519 0
M  V30 15 C 4.694087 5.587040 -20.121268 0
M  V30 16 C 6.937691 4.738619 -18.612416 0 CFG=2
M  V30 17 N 10.543514 8.224736 -8.157086 0 CFG=1 CHG=1
M  V30 18 C 6.678780 5.615537 -15.684627 0
M  V30 19 C 7.171892 6.264570 -14.526400 0
M  V30 20 C 11.465112 9.454804 -5.281811 0
M  V30 21 C 7.417818 4.570708 -16.279851 0
M  V30 22 C 8.611565 4.154902 -15.703878 0
M  V30 23 C 8.351731 7.679297 -12.146878 0
M  V30 24 C 9.760378 6.328281 -6.107355 0
M  V30 25 N 10.741444 8.326779 -5.241961 0
M  V30 26 C 11.060691 7.102139 -5.978777 0 CFG=2
M  V30 27 C 8.689951 7.135662 -6.777493 0
M  V30 28 O 12.471998 9.591590 -5.970508 0
M  V30 29 C 12.407029 9.011177 -9.675358 0
M  V30 30 C 9.119500 2.377920 -19.040767 0
M  V30 31 C 10.909346 8.774485 -9.508184 0 CFG=1
M  V30 32 C 9.026884 6.616455 -12.785063 0
M  V30 33 C 10.265228 8.041853 -10.678116 0
M  V30 34 C 8.865311 3.570814 -19.969211 0
M  V30 35 C 8.975372 8.389803 -11.106794 0
M  V30 36 H 9.904486 10.735706 -4.397446 0
M  V30 37 H 11.301988 10.391314 -3.386449 0
M  V30 38 H 11.375263 11.528122 -4.785061 0
M  V30 39 H 8.575601 8.577693 -8.364753 0
M  V30 40 H 8.990536 6.914083 -8.855997 0
M  V30 41 H 11.528093 6.375670 -8.004566 0
M  V30 42 H 12.525458 7.696663 -7.498762 0
M  V30 43 H 10.048151 4.460077 -14.159644 0
M  V30 44 H 10.908687 5.554161 -12.833926 0
M  V30 45 H 5.174108 8.596535 -22.009154 0
M  V30 46 H 4.146217 8.383381 -20.477294 0
M  V30 47 H 8.286821 5.631617 -20.019966 0
M  V30 48 H 9.067430 5.182479 -18.532744 0
M  V30 49 H 12.560212 5.560740 -5.690781 0
M  V30 50 H 12.575458 6.804919 -4.397906 0
M  V30 51 H 11.372646 5.594071 -4.406069 0
M  V30 52 H 5.855450 6.175093 -21.916377 0
M  V30 53 H 11.951064 6.790590 -11.022422 0
M  V30 54 H 3.788718 5.235604 -20.617009 0
M  V30 55 H 4.398439 6.063113 -19.185842 0
M  V30 56 H 6.629383 5.748875 -18.340773 0
M  V30 57 H 5.742638 5.932047 -16.121223 0
M  V30 58 H 6.608813 7.076351 -14.101174 0
M  V30 59 H 9.167549 3.347225 -16.154943 0
M  V30 60 H 7.359496 7.961023 -12.455809 0
M  V30 61 H 9.382768 5.990165 -5.142917 0
M  V30 62 H 9.922228 5.446738 -6.727750 0
M  V30 63 H 9.924094 8.302349 -4.652575 0
M  V30 64 H 8.315501 7.946832 -6.149888 0
M  V30 65 H 7.902035 6.389489 -6.892236 0
M  V30 66 H 12.596865 9.585928 -10.575697 0
M  V30 67 H 12.755049 9.590203 -8.834545 0
M  V30 68 H 13.007153 8.104518 -9.717140 0
M  V30 69 H 9.502785 1.526436 -19.603890 0
M  V30 70 H 9.856371 2.627046 -18.278173 0
M  V30 71 H 8.206760 2.051127 -18.542974 0
M  V30 72 H 10.459834 9.755451 -9.582760 0
M  V30 73 H 8.192845 3.272250 -20.773968 0
M  V30 74 H 9.807492 3.817958 -20.460231 0
M  V30 75 H 8.443485 9.193402 -10.620682 0
M  V30 76 H 10.537927 9.034591 -7.555879 0
M  V30 END ATOM
M  V30 BEGIN BOND
M  V30 1 1 8 5
M  V30 2 2 10 6
M  V30 3 1 12 5
M  V30 4 1 12 8
M  V30 5 2 14 7
M  V30 6 1 15 1
M  V30 7 1 15 12
M  V30 8 1 16 1
M  V30 9 1 16 9
M  V30 10 1 16 13
M  V30 11 1 17 3
M  V30 12 1 17 4
M  V30 13 1 19 10
M  V30 14 2 19 18
M  V30 15 1 20 2
M  V30 16 1 21 13
M  V30 17 1 21 18
M  V30 18 1 22 6
M  V30 19 2 22 21
M  V30 20 1 25 20
M  V30 21 1 26 4
M  V30 22 1 26 11
M  V30 23 1 26 24
M  V30 24 1 26 25 CFG=1
M  V30 25 1 27 3
M  V30 26 1 27 24
M  V30 27 2 28 20
M  V30 28 1 31 17
M  V30 29 1 31 29
M  V30 30 1 32 7
M  V30 31 1 32 10
M  V30 32 2 32 23
M  V30 33 1 33 14
M  V30 34 1 33 31
M  V30 35 1 34 9
M  V30 36 1 34 30
M  V30 37 1 35 23
M  V30 38 2 35 33
M  V30 39 1 36 2
M  V30 40 1 37 2
M  V30 41 1 38 2
M  V30 42 1 39 3
M  V30 43 1 40 3
M  V30 44 1 41 4
M  V30 45 1 42 4
M  V30 46 1 43 6
M  V30 47 1 44 7
M  V30 48 1 45 8
M  V30 49 1 46 8
M  V30 50 1 47 9
M  V30 51 1 48 9
M  V30 52 1 49 11
M  V30 53 1 50 11
M  V30 54 1 51 11
M  V30 55 1 12 52 CFG=3
M  V30 56 1 53 14
M  V30 57 1 54 15
M  V30 58 1 55 15
M  V30 59 1 16 56 CFG=1
M  V30 60 1 57 18
M  V30 61 1 58 19
M  V30 62 1 59 22
M  V30 63 1 60 23
M  V30 64 1 61 24
M  V30 65 1 62 24
M  V30 66 1 63 25
M  V30 67 1 64 27
M  V30 68 1 65 27
M  V30 69 1 66 29
M  V30 70 1 67 29
M  V30 71 1 68 29
M  V30 72 1 69 30
M  V30 73 1 70 30
M  V30 74 1 71 30
M  V30 75 1 31 72 CFG=1
M  V30 76 1 73 34
M  V30 77 1 74 34
M  V30 78 1 75 35
M  V30 79 1 17 76 CFG=1
M  V30 END BOND
M  V30 END CTAB
M  END
>  <i_epik_Tot_Q>  (1) 
1

>  <i_epik_Tot_abs_Q>  (1) 
1

>  <i_i_glide_confnum>  (1) 
12

>  <i_i_glide_lignum>  (1) 
158

>  <i_i_glide_posenum>  (1) 
163

>  <i_i_glide_rotatable_bonds>  (1) 
12

>  <i_lp_mmshare_version>  (1) 
72125

>  <i_m_source_file_index>  (1) 
88

>  <i_f3d_flags>  (1) 
0

>  <num_sample>  (1) 
100

>  <b_lp_Chiralities_Consistent>  (1) 
1

>  <r_epik_Charging_Adjusted_Penalty>  (1) 
0.24591797925462006

>  <r_epik_Ionization_Penalty>  (1) 
0.12295908446121387

>  <r_epik_Ionization_Penalty_Charging>  (1) 
0.12295898962731001

>  <r_epik_Ionization_Penalty_Neutral>  (1) 
9.4833903855356945e-08

>  <r_epik_State_Penalty>  (1) 
0.12295898962731003

>  <r_glide_ring_energy>  (1) 
0

>  <r_i_docking_score>  (1) 
-1.6727263106543457

>  <r_i_glide_ecoul>  (1) 
-1.1912035638263485

>  <r_i_glide_eff_state_penalty>  (1) 
0.12295898962731003

>  <r_i_glide_einternal>  (1) 
20.881491504543369

>  <r_i_glide_emodel>  (1) 
2.7098799460017098

>  <r_i_glide_emodel_strain>  (1) 
3.7305299668740659

>  <r_i_glide_energy>  (1) 
-5.1022319803651062

>  <r_i_glide_erotb>  (1) 
0.74116783978336576

>  <r_i_glide_esite>  (1) 
-0.0035787183356817045

>  <r_i_glide_evdw>  (1) 
-3.9110284165387572

>  <r_i_glide_gscore>  (1) 
-1.7956853002816557

>  <r_i_glide_gscore_strain>  (1) 
0

>  <r_i_glide_hbond>  (1) 
0

>  <r_i_glide_ligand_efficiency>  (1) 
-0.047792180304409876

>  <r_i_glide_ligand_efficiency_ln>  (1) 
-0.36720054934889707

>  <r_i_glide_ligand_efficiency_sa>  (1) 
-0.15633139088421383

>  <r_i_glide_lipo>  (1) 
-2.2747768250438063

>  <r_i_glide_metal>  (1) 
-0

>  <r_i_glide_rewards>  (1) 
0.11573435871535587

>  <r_lp_Energy>  (1) 
38.466504999999998

>  <r_lp_tautomer_probability>  (1) 
1

>  <s_epik_Chemistry_Notes>  (1) 
This compound contains an acetal/aminal-like group ( X-CH(R)-Y where X, Y are N, S, or O) that may be acid/base labile, releasing an aldehyde.

>  <s_epik_cmdline>  (1) 
J2VwaWtfcHl0aG9uJywgJy1waHQnLCAnMS4wJywgJy1waCcsICc3LjQnLCAnLXRuJywgJzgnLCAnLW1hJywgJzUwMCcsICctaW1hZScsICc8aW5maWxlLm1hZT4nLCAnLW9tYWUnLCAnPG91dGZpbGUubWFlPic=

>  <s_epik_input>  (1) 
W0NIMl0xT1tDQEhdMVtDSDJdU1tDQEhdKFtDSDJdW0NIMl1bQ0gzXSlPYyhbY0hdW2NIXTIpW2NIXVtjSF1jMi1jM1tjSF1bY0hdYyhbY0hdW2NIXTMpW0NASF0oW0NIM10pTihbQ0gyXVtDSDJdW0NIMl00KVtDSDJdW0NAQF00KFtDSDNdKVtOSF1DKD1PKVtDSDNd

>  <s_glide_docking_method>  (1) 
confgen

>  <s_i_glide_gridfile>  (1) 
gpcr_drd2_6luq_protein_autoprepared_prepared

>  <s_lp_Force_Field>  (1) 
S-OPLS

>  <s_lp_Variant>  (1) 
DiffSBDD_87-2

>  <s_m_source_file>  (1) 
generated_generic_title2_ligand_DiffSBDD_2026-06-23_prepared.sdf

>  <GenAI_Model>  (1) 
DiffSBDD

>  <Protein>  (1) 
generic_title2

$$$$
DiffSBDD_37
     RDKit          3D

  0  0  0  0  0  0  0  0  0  0999 V3000
M  V30 BEGIN CTAB
M  V30 COUNTS 44 46 0 0 1
M  V30 BEGIN ATOM
M  V30 1 C 8.348191 -0.718080 -19.602001 0
M  V30 2 O 6.687674 5.190227 -16.848995 0
M  V30 3 C 7.465622 0.841006 -17.833554 0 CFG=1
M  V30 4 C 7.648020 3.035845 -15.383869 0
M  V30 5 C 8.251637 0.821102 -16.493091 0
M  V30 6 C 4.524454 -3.440702 -18.069827 0
M  V30 7 C 7.539837 -1.443038 -18.531838 0 CFG=2
M  V30 8 O 8.306060 3.692603 -16.406554 0
M  V30 9 O 5.776106 3.793884 -12.279625 0
M  V30 10 C 6.952109 0.944217 -14.314864 0
M  V30 11 C 6.346450 1.675105 -13.274128 0
M  V30 12 C 7.276640 5.185842 -10.790006 0
M  V30 13 C 5.842450 -2.767997 -17.672434 0 CFG=2
M  V30 14 C 7.035883 3.764999 -14.337739 0
M  V30 15 C 7.600005 1.619107 -15.372321 0
M  V30 16 C 7.815863 4.760223 -17.088983 0
M  V30 17 C 7.469786 -3.754076 -19.181958 0
M  V30 18 C 8.414553 0.738855 -19.067211 0
M  V30 19 S 5.558175 -1.143630 -16.865501 0
M  V30 20 C 6.577708 4.477849 -11.496688 0
M  V30 21 O 8.508380 5.292528 -17.951953 0 CHG=-1
M  V30 22 N 6.681623 -2.565724 -18.870287 0
M  V30 23 C 6.572843 -0.372679 -18.112741 0 CFG=1
M  V30 24 C 6.383919 3.085557 -13.285175 0
M  V30 25 H 7.832952 -0.753829 -20.563537 0
M  V30 26 H 9.338362 -1.154529 -19.734393 0
M  V30 27 H 6.881896 1.760683 -17.895248 0
M  V30 28 H 8.448120 -0.195132 -16.153681 0
M  V30 29 H 9.234353 1.264670 -16.639649 0
M  V30 30 H 4.689530 -4.385987 -18.585186 0
M  V30 31 H 3.935797 -2.802909 -18.730098 0
M  V30 32 H 3.929164 -3.664014 -17.185363 0
M  V30 33 H 8.194081 -1.720407 -17.702870 0
M  V30 34 H 6.918056 -0.136736 -14.303655 0
M  V30 35 H 5.848289 1.153190 -12.468307 0
M  V30 36 H 7.832000 5.853148 -10.169746 0
M  V30 37 H 6.369916 -3.385157 -16.945759 0
M  V30 38 H 7.066961 4.844272 -14.341617 0
M  V30 39 H 6.818121 -4.597458 -19.412842 0
M  V30 40 H 8.117413 -4.043109 -18.351793 0
M  V30 41 H 8.097759 -3.579750 -20.056908 0
M  V30 42 H 9.439681 1.019169 -18.825615 0
M  V30 43 H 8.085484 1.422463 -19.851933 0
M  V30 44 H 5.908455 -0.129308 -18.945440 0
M  V30 END ATOM
M  V30 BEGIN BOND
M  V30 1 1 5 3
M  V30 2 1 7 1
M  V30 3 1 8 4
M  V30 4 2 11 10
M  V30 5 1 13 6
M  V30 6 1 14 4
M  V30 7 2 15 4
M  V30 8 1 15 5
M  V30 9 1 15 10
M  V30 10 2 16 2
M  V30 11 1 16 8
M  V30 12 1 18 1
M  V30 13 1 18 3
M  V30 14 1 19 13
M  V30 15 1 20 9
M  V30 16 3 20 12
M  V30 17 1 21 16
M  V30 18 1 22 7
M  V30 19 1 22 13
M  V30 20 1 22 17
M  V30 21 1 23 3
M  V30 22 1 23 7
M  V30 23 1 23 19
M  V30 24 1 24 9
M  V30 25 1 24 11
M  V30 26 2 24 14
M  V30 27 1 25 1
M  V30 28 1 26 1
M  V30 29 1 3 27 CFG=3
M  V30 30 1 28 5
M  V30 31 1 29 5
M  V30 32 1 30 6
M  V30 33 1 31 6
M  V30 34 1 32 6
M  V30 35 1 7 33 CFG=1
M  V30 36 1 34 10
M  V30 37 1 35 11
M  V30 38 1 36 12
M  V30 39 1 13 37 CFG=1
M  V30 40 1 38 14
M  V30 41 1 39 17
M  V30 42 1 40 17
M  V30 43 1 41 17
M  V30 44 1 42 18
M  V30 45 1 43 18
M  V30 46 1 23 44 CFG=3
M  V30 END BOND
M  V30 END CTAB
M  END
>  <i_epik_Tot_Q>  (1) 
-1

>  <i_epik_Tot_abs_Q>  (1) 
1

>  <i_i_glide_confnum>  (1) 
32

>  <i_i_glide_lignum>  (1) 
63

>  <i_i_glide_posenum>  (1) 
69

>  <i_i_glide_rotatable_bonds>  (1) 
6

>  <i_lp_mmshare_version>  (1) 
72125

>  <i_m_source_file_index>  (1) 
38

>  <i_f3d_flags>  (1) 
0

>  <num_sample>  (1) 
100

>  <b_lp_Chiralities_Consistent>  (1) 
1

>  <r_epik_Charging_Adjusted_Penalty>  (1) 
0.031102541531961528

>  <r_epik_Ionization_Penalty>  (1) 
0.017897684908629235

>  <r_epik_Ionization_Penalty_Charging>  (1) 
0.015551270765980757

>  <r_epik_Ionization_Penalty_Neutral>  (1) 
0.0023464141426484783

>  <r_epik_State_Penalty>  (1) 
0.015551270765980773

>  <r_glide_ring_energy>  (1) 
0

>  <r_i_docking_score>  (1) 
-1.6603353270577552

>  <r_i_glide_ecoul>  (1) 
-1.3547631208357382

>  <r_i_glide_eff_state_penalty>  (1) 
0.015551270765980773

>  <r_i_glide_einternal>  (1) 
0.67692443209207553

>  <r_i_glide_emodel>  (1) 
-29.336153198426494

>  <r_i_glide_emodel_strain>  (1) 
0.18527574757408871

>  <r_i_glide_energy>  (1) 
-27.224331335073835

>  <r_i_glide_erotb>  (1) 
0.79208317034527342

>  <r_i_glide_esite>  (1) 
0

>  <r_i_glide_evdw>  (1) 
-25.869568214238097

>  <r_i_glide_gscore>  (1) 
-1.6758865978237361

>  <r_i_glide_gscore_strain>  (1) 
0

>  <r_i_glide_hbond>  (1) 
0

>  <r_i_glide_ligand_efficiency>  (1) 
-0.069180638627406463

>  <r_i_glide_ligand_efficiency_ln>  (1) 
-0.39739443158861448

>  <r_i_glide_ligand_efficiency_sa>  (1) 
-0.19955149266793815

>  <r_i_glide_lipo>  (1) 
-1.2054451801493828

>  <r_i_glide_metal>  (1) 
-0

>  <r_i_glide_rewards>  (1) 
0.23416829081763901

>  <r_lp_Energy>  (1) 
41.583638999999998

>  <s_epik_Chemistry_Notes>  (1) 
This compound contains an acetal/aminal-like group ( X-CH(R)-Y where X, Y are N, S, or O) that may be acid/base labile, releasing an aldehyde. This is carbonic acid which has a microscopic pka value of about 3.8 however its equilibrium with CO2 as a lewis acid yields a pKa of about 6.35.

>  <s_epik_cmdline>  (1) 
J2VwaWtfcHl0aG9uJywgJy1waHQnLCAnMS4wJywgJy1waCcsICc3LjQnLCAnLXRuJywgJzgnLCAnLW1hJywgJzUwMCcsICctaW1hZScsICc8aW5maWxlLm1hZT4nLCAnLW9tYWUnLCAnPG91dGZpbGUubWFlPic=

>  <s_epik_input>  (1) 
W0NIM11OMVtDQEhdKFtDSDNdKVNbQ0BIXShbQ0BASF0xMilbQ0BIXShbQ0gyXVtDSDJdMilbQ0gyXWMzW2NIXVtjSF1jKE9DI1tDSF0pW2NIXWMzT0MoPU8pW09IXQ==

>  <s_glide_docking_method>  (1) 
confgen

>  <s_i_glide_gridfile>  (1) 
gpcr_drd2_6luq_protein_autoprepared_prepared

>  <s_lp_Force_Field>  (1) 
S-OPLS

>  <s_lp_Variant>  (1) 
DiffSBDD_37-1

>  <s_m_source_file>  (1) 
generated_generic_title2_ligand_DiffSBDD_2026-06-23_prepared.sdf

>  <GenAI_Model>  (1) 
DiffSBDD

>  <Protein>  (1) 
generic_title2

$$$$
DiffSBDD_60
     RDKit          3D

  0  0  0  0  0  0  0  0  0  0999 V3000
M  V30 BEGIN CTAB
M  V30 COUNTS 71 74 0 0 1
M  V30 BEGIN ATOM
M  V30 1 C 7.391712 7.726909 -12.998666 0
M  V30 2 C 10.272661 7.305167 -9.277108 0
M  V30 3 C 7.562318 4.896900 -20.710801 0 CFG=1
M  V30 4 C 8.252445 3.804699 -16.370980 0
M  V30 5 C 11.034672 8.371088 -9.792214 0
M  V30 6 O 9.893336 5.602522 -16.945981 0
M  V30 7 C 9.304932 6.660213 -10.082926 0
M  V30 8 C 11.987816 9.001201 -8.990050 0
M  V30 9 N 9.075046 7.123105 -11.388759 0
M  V30 10 C 5.796370 3.187577 -19.818264 0
M  V30 11 C 9.722028 5.832629 -7.423169 0
M  V30 12 C 5.266431 5.001722 -13.368298 0
M  V30 13 S 8.944146 5.006583 -21.895355 0
M  V30 14 C 6.618089 6.051141 -21.104147 0
M  V30 15 C 8.577247 5.567388 -9.552367 0
M  V30 16 O 5.200461 1.936849 -20.094002 0
M  V30 17 C 10.476306 6.883980 -7.944522 0
M  V30 18 C 9.086861 4.072274 -18.722896 0
M  V30 19 C 10.847172 4.560598 -16.734330 0 CFG=2
M  V30 20 C 8.490800 3.854543 -14.848791 0
M  V30 21 O 7.747055 2.440188 -21.007266 0
M  V30 22 C 12.039650 4.622608 -17.641326 0
M  V30 23 O 9.773856 5.564005 -13.209731 0
M  V30 24 C 11.429951 7.522763 -7.138646 0
M  V30 25 C 6.412936 4.282330 -14.007800 0 CFG=2
M  V30 26 C 9.420475 4.284085 -17.249672 0 CFG=2
M  V30 27 C 7.942636 6.569714 -12.144735 0 CFG=2
M  V30 28 O 12.381182 3.652999 -18.315946 0
M  V30 29 C 6.837326 3.525728 -20.911041 0 CFG=2
M  V30 30 C 12.185199 8.585018 -7.664026 0
M  V30 31 C 8.788310 5.163421 -8.227786 0
M  V30 32 O 6.091603 4.097733 -12.617619 0
M  V30 33 C 8.428876 5.280494 -12.895814 0 CFG=1
M  V30 34 C 8.122982 5.145569 -19.285014 0
M  V30 35 N 7.738685 4.903729 -14.148483 0
M  V30 36 H 6.844434 7.402624 -13.885179 0
M  V30 37 H 6.768180 8.381315 -12.382377 0
M  V30 38 H 8.181654 8.384288 -13.333335 0
M  V30 39 H 7.359982 4.372536 -16.629483 0
M  V30 40 H 8.027213 2.771752 -16.647091 0
M  V30 41 H 10.893784 8.702764 -10.801254 0
M  V30 42 H 12.560579 9.811036 -9.391465 0
M  V30 43 H 9.483826 7.990853 -11.691271 0
M  V30 44 H 5.014665 3.947074 -19.789781 0
M  V30 45 H 6.235150 3.146936 -18.819962 0
M  V30 46 H 9.869772 5.532593 -6.400046 0
M  V30 47 H 5.350280 6.052908 -13.124243 0
M  V30 48 H 4.270797 4.630419 -13.589831 0
M  V30 49 H 9.381895 3.763930 -21.660352 0
M  V30 50 H 5.746172 6.096842 -20.451114 0
M  V30 51 H 7.118665 7.019057 -21.042023 0
M  V30 52 H 6.254480 5.930821 -22.126355 0
M  V30 53 H 7.848517 5.048741 -10.147079 0
M  V30 54 H 5.164623 1.816608 -21.031181 0
M  V30 55 H 8.664932 3.072362 -18.801040 0
M  V30 56 H 9.990548 4.049149 -19.329833 0
M  V30 57 H 11.096178 4.388997 -15.691738 0
M  V30 58 H 8.299972 2.877092 -14.393160 0
M  V30 59 H 9.537495 3.990228 -14.706337 0
M  V30 60 H 7.740512 1.972585 -20.186223 0
M  V30 61 H 12.580458 5.581065 -17.655266 0
M  V30 62 H 10.052746 6.067189 -12.455115 0
M  V30 63 H 11.583260 7.193705 -6.120542 0
M  V30 64 H 6.126947 3.457404 -14.655636 0
M  V30 65 H 7.101179 6.316792 -11.493532 0
M  V30 66 H 6.328467 3.556393 -21.875957 0
M  V30 67 H 12.920504 9.078519 -7.048652 0
M  V30 68 H 8.219559 4.341235 -7.824660 0
M  V30 69 H 8.432809 4.430309 -12.211930 0
M  V30 70 H 8.643927 6.104405 -19.264311 0
M  V30 71 H 7.276052 5.285082 -18.615178 0
M  V30 END ATOM
M  V30 BEGIN BOND
M  V30 1 2 5 2
M  V30 2 1 7 2
M  V30 3 1 8 5
M  V30 4 1 9 7
M  V30 5 1 3 13 CFG=3
M  V30 6 1 14 3
M  V30 7 2 15 7
M  V30 8 1 16 10
M  V30 9 1 17 2
M  V30 10 1 17 11
M  V30 11 1 19 6
M  V30 12 1 20 4
M  V30 13 1 22 19
M  V30 14 2 24 17
M  V30 15 1 25 12
M  V30 16 1 26 4 CFG=1
M  V30 17 1 26 6
M  V30 18 1 26 18
M  V30 19 1 26 19
M  V30 20 1 27 1
M  V30 21 1 27 9
M  V30 22 2 28 22
M  V30 23 1 29 3
M  V30 24 1 29 10
M  V30 25 1 29 21
M  V30 26 2 30 8
M  V30 27 1 30 24
M  V30 28 2 31 11
M  V30 29 1 31 15
M  V30 30 1 32 12
M  V30 31 1 32 25
M  V30 32 1 33 23
M  V30 33 1 33 27
M  V30 34 1 34 3
M  V30 35 1 34 18
M  V30 36 1 35 20
M  V30 37 1 35 25
M  V30 38 1 35 33
M  V30 39 1 36 1
M  V30 40 1 37 1
M  V30 41 1 38 1
M  V30 42 1 39 4
M  V30 43 1 40 4
M  V30 44 1 41 5
M  V30 45 1 42 8
M  V30 46 1 43 9
M  V30 47 1 44 10
M  V30 48 1 45 10
M  V30 49 1 46 11
M  V30 50 1 47 12
M  V30 51 1 48 12
M  V30 52 1 49 13
M  V30 53 1 50 14
M  V30 54 1 51 14
M  V30 55 1 52 14
M  V30 56 1 53 15
M  V30 57 1 54 16
M  V30 58 1 55 18
M  V30 59 1 56 18
M  V30 60 1 19 57 CFG=1
M  V30 61 1 58 20
M  V30 62 1 59 20
M  V30 63 1 60 21
M  V30 64 1 61 22
M  V30 65 1 62 23
M  V30 66 1 63 24
M  V30 67 1 25 64 CFG=3
M  V30 68 1 27 65 CFG=1
M  V30 69 1 29 66 CFG=3
M  V30 70 1 67 30
M  V30 71 1 68 31
M  V30 72 1 33 69 CFG=1
M  V30 73 1 70 34
M  V30 74 1 71 34
M  V30 END BOND
M  V30 END CTAB
M  END
>  <i_epik_Tot_Q>  (1) 
0

>  <i_epik_Tot_abs_Q>  (1) 
0

>  <i_i_glide_confnum>  (1) 
4909

>  <i_i_glide_lignum>  (1) 
95

>  <i_i_glide_posenum>  (1) 
327

>  <i_i_glide_rotatable_bonds>  (1) 
18

>  <i_lp_mmshare_version>  (1) 
72125

>  <i_m_source_file_index>  (1) 
61

>  <i_f3d_flags>  (1) 
0

>  <num_sample>  (1) 
100

>  <b_lp_Chiralities_Consistent>  (1) 
1

>  <r_epik_Charging_Adjusted_Penalty>  (1) 
0

>  <r_epik_Ionization_Penalty>  (1) 
0.014434527225192804

>  <r_epik_Ionization_Penalty_Charging>  (1) 
0

>  <r_epik_Ionization_Penalty_Neutral>  (1) 
0.014434527225192804

>  <r_epik_State_Penalty>  (1) 
-0

>  <r_glide_ring_energy>  (1) 
0

>  <r_i_docking_score>  (1) 
-1.6063872845035463

>  <r_i_glide_ecoul>  (1) 
1.6075195043203068

>  <r_i_glide_eff_state_penalty>  (1) 
-0

>  <r_i_glide_einternal>  (1) 
24.772577240541331

>  <r_i_glide_emodel>  (1) 
-6.3249868703549055

>  <r_i_glide_emodel_strain>  (1) 
6.9909281548329432

>  <r_i_glide_energy>  (1) 
-22.18057618750321

>  <r_i_glide_erotb>  (1) 
0.88320893883716522

>  <r_i_glide_esite>  (1) 
-0.078235091714039445

>  <r_i_glide_evdw>  (1) 
-23.788095691823518

>  <r_i_glide_gscore>  (1) 
-1.6063872845035463

>  <r_i_glide_gscore_strain>  (1) 
0.74773203870823579

>  <r_i_glide_hbond>  (1) 
0

>  <r_i_glide_ligand_efficiency>  (1) 
-0.04589677955724418

>  <r_i_glide_ligand_efficiency_ln>  (1) 
-0.35263766079343739

>  <r_i_glide_ligand_efficiency_sa>  (1) 
-0.15013140935585384

>  <r_i_glide_lipo>  (1) 
-1.3248448241740844

>  <r_i_glide_metal>  (1) 
-0

>  <r_i_glide_rewards>  (1) 
-0.88597148721769337

>  <r_lp_Energy>  (1) 
38.450359999999996

>  <r_lp_tautomer_probability>  (1) 
1

>  <s_epik_Chemistry_Notes>  (1) 
This compound contains an acetal/aminal-like group ( X-CH(R)-Y where X, Y are N, S, or O) that may be acid/base labile, releasing an aldehyde.

>  <s_epik_cmdline>  (1) 
J2VwaWtfcHl0aG9uJywgJy1waHQnLCAnMS4wJywgJy1waCcsICc3LjQnLCAnLXRuJywgJzgnLCAnLW1hJywgJzUwMCcsICctaW1hZScsICc8aW5maWxlLm1hZT4nLCAnLW9tYWUnLCAnPG91dGZpbGUubWFlPic=

>  <s_epik_input>  (1) 
W2NIXTFbY0hdW2NIXVtjSF1jKGMxMilbY0hdW2NIXVtjSF1jMltOSF1bQ0BASF0oW0NIM10pW0NASF0oW09IXSlOKFtDQEBIXTNbQ0gyXU8zKVtDSDJdW0NIMl1bQ0BAXTQoT1tDQEBIXTRbQ0hdPU8pW0NIMl1bQ0gyXVtDQF0oW1NIXSkoW0NIM10pW0NAQEhdKFtPSF0pW0NIMl1bT0hd

>  <s_glide_docking_method>  (1) 
confgen

>  <s_i_glide_gridfile>  (1) 
gpcr_drd2_6luq_protein_autoprepared_prepared

>  <s_lp_Force_Field>  (1) 
S-OPLS

>  <s_lp_Variant>  (1) 
DiffSBDD_60-1

>  <s_m_source_file>  (1) 
generated_generic_title2_ligand_DiffSBDD_2026-06-23_prepared.sdf

>  <GenAI_Model>  (1) 
DiffSBDD

>  <Protein>  (1) 
generic_title2

$$$$
DiffSBDD_78
     RDKit          3D

  0  0  0  0  0  0  0  0  0  0999 V3000
M  V30 BEGIN CTAB
M  V30 COUNTS 81 85 0 0 1
M  V30 BEGIN ATOM
M  V30 1 C 4.966398 9.824199 -22.194687 0 CFG=2
M  V30 2 C 3.796637 9.199052 -22.967502 0
M  V30 3 C 8.258684 1.854838 -17.841918 0 CFG=1
M  V30 4 C 9.925859 3.996055 -17.386595 0 CFG=2
M  V30 5 C 5.479314 11.125897 -22.822104 0
M  V30 6 N 11.823539 5.423739 -16.534216 0 CHG=1
M  V30 7 C 8.823004 3.686721 -16.333456 0 CFG=1
M  V30 8 C 7.144815 4.159494 -18.185224 0 CFG=1
M  V30 9 N 6.150269 8.937434 -22.112783 0 CFG=1 CHG=1
M  V30 10 C 7.299709 9.829215 -21.854100 0
M  V30 11 N 6.993308 5.514560 -18.829516 0 CFG=2 CHG=1
M  V30 12 C 7.781108 2.524386 -20.199983 0
M  V30 13 C 10.524043 5.411196 -17.250916 0
M  V30 14 C 14.221811 5.114496 -16.453089 0
M  V30 15 O 9.416409 3.756807 -18.723086 0
M  V30 16 C 5.726760 6.160383 -18.388382 0
M  V30 17 C 15.534937 4.914337 -17.233009 0 CFG=1
M  V30 18 C 7.277303 1.474112 -16.762044 0
M  V30 19 C 8.144296 3.080562 -18.785030 0 CFG=2
M  V30 20 F 15.533825 3.681863 -17.742269 0
M  V30 21 C 6.990687 11.139588 -22.568220 0
M  V30 22 C 8.778222 1.520475 -20.804991 0
M  V30 23 O 13.163109 6.019252 -18.404907 0
M  V30 24 C 7.532672 4.430151 -16.698266 0
M  V30 25 C 15.596740 5.915336 -18.404037 0 CFG=1
M  V30 26 C 7.332321 7.078924 -20.846631 0
M  V30 27 C 13.050258 5.008846 -17.453030 0 CFG=2
M  V30 28 C 6.000350 7.801373 -21.163993 0
M  V30 29 C 7.220714 5.639579 -20.294898 0
M  V30 30 C 16.773983 5.008901 -16.327075 0
M  V30 31 C 14.306220 5.873171 -19.243965 0
M  V30 32 C 8.576862 2.193126 -16.413711 0 CFG=1
M  V30 33 F 15.768319 7.155954 -17.945700 0
M  V30 34 H 4.635935 10.056402 -21.180341 0
M  V30 35 H 2.984815 9.918207 -23.090334 0
M  V30 36 H 4.105514 8.874405 -23.960098 0
M  V30 37 H 3.386995 8.334714 -22.446392 0
M  V30 38 H 8.876836 1.047794 -18.222421 0
M  V30 39 H 10.732186 3.272165 -17.256478 0
M  V30 40 H 4.971600 11.991430 -22.399230 0
M  V30 41 H 5.298421 11.140550 -23.898185 0
M  V30 42 H 11.980327 6.368086 -16.210157 0
M  V30 43 H 9.136760 3.990049 -15.332886 0
M  V30 44 H 6.168474 3.688616 -18.233060 0
M  V30 45 H 7.375400 10.019339 -20.784911 0
M  V30 46 H 8.244111 9.398698 -22.189813 0
M  V30 47 H 7.676895 3.283061 -20.959760 0
M  V30 48 H 6.799929 2.049521 -20.147348 0
M  V30 49 H 10.645360 5.873374 -18.231506 0
M  V30 50 H 9.838983 6.049194 -16.699532 0
M  V30 51 H 14.214065 6.094857 -15.974064 0
M  V30 52 H 14.111492 4.357176 -15.675619 0
M  V30 53 H 4.895859 5.900322 -19.046374 0
M  V30 54 H 5.436203 5.872160 -17.377832 0
M  V30 55 H 5.838029 7.242104 -18.359249 0
M  V30 56 H 7.217327 0.418460 -16.504192 0
M  V30 57 H 6.326563 1.993395 -16.698238 0
M  V30 58 H 7.328295 11.979117 -21.962229 0
M  V30 59 H 7.524340 11.188877 -23.518590 0
M  V30 60 H 8.544260 1.340346 -21.855003 0
M  V30 61 H 8.744244 0.547697 -20.315060 0
M  V30 62 H 9.800804 1.896305 -20.758112 0
M  V30 63 H 6.730999 4.136064 -16.020722 0
M  V30 64 H 7.671837 5.493575 -16.499649 0
M  V30 65 H 16.459734 5.711358 -19.038923 0
M  V30 66 H 7.957653 7.680481 -20.187215 0
M  V30 67 H 7.886838 7.000152 -21.783357 0
M  V30 68 H 12.928146 4.017760 -17.894628 0
M  V30 69 H 5.289923 7.095914 -21.595615 0
M  V30 70 H 5.547696 8.181698 -20.250746 0
M  V30 71 H 8.202807 5.216056 -20.495904 0
M  V30 72 H 6.471390 5.076663 -20.852829 0
M  V30 73 H 16.804720 5.958562 -15.790778 0
M  V30 74 H 16.780575 4.209576 -15.586621 0
M  V30 75 H 17.695633 4.930273 -16.903918 0
M  V30 76 H 14.234963 4.934419 -19.795810 0
M  V30 77 H 14.309555 6.674642 -19.983121 0
M  V30 78 H 9.369898 1.589364 -15.985044 0
M  V30 79 H 6.295557 8.560743 -23.039841 0
M  V30 80 H 7.738858 6.055780 -18.416907 0
M  V30 81 H 11.775442 4.822079 -15.719532 0
M  V30 END ATOM
M  V30 BEGIN BOND
M  V30 1 1 2 1
M  V30 2 1 5 1
M  V30 3 1 7 4
M  V30 4 1 9 1
M  V30 5 1 10 9
M  V30 6 1 11 8
M  V30 7 1 13 4
M  V30 8 1 13 6
M  V30 9 1 15 4
M  V30 10 1 16 11
M  V30 11 1 17 14
M  V30 12 1 18 3
M  V30 13 1 19 3
M  V30 14 1 19 8
M  V30 15 1 19 12 CFG=3
M  V30 16 1 19 15
M  V30 17 1 17 20 CFG=3
M  V30 18 1 21 5
M  V30 19 1 21 10
M  V30 20 1 22 12
M  V30 21 1 24 7
M  V30 22 1 24 8
M  V30 23 1 25 17
M  V30 24 1 27 6
M  V30 25 1 27 14
M  V30 26 1 27 23
M  V30 27 1 28 9
M  V30 28 1 28 26
M  V30 29 1 29 11
M  V30 30 1 29 26
M  V30 31 1 30 17
M  V30 32 1 31 23
M  V30 33 1 31 25
M  V30 34 1 32 3
M  V30 35 1 32 7
M  V30 36 1 32 18
M  V30 37 1 33 25
M  V30 38 1 1 34 CFG=1
M  V30 39 1 35 2
M  V30 40 1 36 2
M  V30 41 1 37 2
M  V30 42 1 3 38 CFG=3
M  V30 43 1 4 39 CFG=1
M  V30 44 1 40 5
M  V30 45 1 41 5
M  V30 46 1 42 6
M  V30 47 1 7 43 CFG=1
M  V30 48 1 8 44 CFG=1
M  V30 49 1 45 10
M  V30 50 1 46 10
M  V30 51 1 47 12
M  V30 52 1 48 12
M  V30 53 1 49 13
M  V30 54 1 50 13
M  V30 55 1 51 14
M  V30 56 1 52 14
M  V30 57 1 53 16
M  V30 58 1 54 16
M  V30 59 1 55 16
M  V30 60 1 56 18
M  V30 61 1 57 18
M  V30 62 1 58 21
M  V30 63 1 59 21
M  V30 64 1 60 22
M  V30 65 1 61 22
M  V30 66 1 62 22
M  V30 67 1 63 24
M  V30 68 1 64 24
M  V30 69 1 25 65 CFG=3
M  V30 70 1 66 26
M  V30 71 1 67 26
M  V30 72 1 27 68 CFG=3
M  V30 73 1 69 28
M  V30 74 1 70 28
M  V30 75 1 71 29
M  V30 76 1 72 29
M  V30 77 1 73 30
M  V30 78 1 74 30
M  V30 79 1 75 30
M  V30 80 1 76 31
M  V30 81 1 77 31
M  V30 82 1 32 78 CFG=1
M  V30 83 1 9 79 CFG=3
M  V30 84 1 11 80 CFG=1
M  V30 85 1 81 6
M  V30 END BOND
M  V30 END CTAB
M  END
>  <i_epik_Tot_Q>  (1) 
3

>  <i_epik_Tot_abs_Q>  (1) 
3

>  <i_i_glide_confnum>  (1) 
235

>  <i_i_glide_lignum>  (1) 
134

>  <i_i_glide_posenum>  (1) 
293

>  <i_i_glide_rotatable_bonds>  (1) 
9

>  <i_lp_mmshare_version>  (1) 
72125

>  <i_m_source_file_index>  (1) 
79

>  <i_f3d_flags>  (1) 
0

>  <num_sample>  (1) 
100

>  <b_lp_Chiralities_Consistent>  (1) 
1

>  <r_epik_Charging_Adjusted_Penalty>  (1) 
1.7942086838225126

>  <r_epik_Ionization_Penalty>  (1) 
0.94562311220168549

>  <r_epik_Ionization_Penalty_Charging>  (1) 
0.94562311220168382

>  <r_epik_Ionization_Penalty_Neutral>  (1) 
1.710257484888175e-15

>  <r_epik_State_Penalty>  (1) 
0.84858557162082893

>  <r_glide_ring_energy>  (1) 
0

>  <r_i_docking_score>  (1) 
-1.5273945245680767

>  <r_i_glide_ecoul>  (1) 
-3.3762200713551387

>  <r_i_glide_eff_state_penalty>  (1) 
0.84858557162082893

>  <r_i_glide_einternal>  (1) 
4.9272714513122828

>  <r_i_glide_emodel>  (1) 
-27.046743843979378

>  <r_i_glide_emodel_strain>  (1) 
1.4504427662831745

>  <r_i_glide_energy>  (1) 
-24.275141512713368

>  <r_i_glide_erotb>  (1) 
0.72404097212868179

>  <r_i_glide_esite>  (1) 
-0.035136324269803662

>  <r_i_glide_evdw>  (1) 
-20.89892144135823

>  <r_i_glide_gscore>  (1) 
-2.3759800961889055

>  <r_i_glide_gscore_strain>  (1) 
0

>  <r_i_glide_hbond>  (1) 
0

>  <r_i_glide_ligand_efficiency>  (1) 
-0.046284682562668988

>  <r_i_glide_ligand_efficiency_ln>  (1) 
-0.33968463383834185

>  <r_i_glide_ligand_efficiency_sa>  (1) 
-0.14845970827272001

>  <r_i_glide_lipo>  (1) 
-1.245026849748943

>  <r_i_glide_metal>  (1) 
-0

>  <r_i_glide_rewards>  (1) 
-0.26847881152765846

>  <r_lp_Energy>  (1) 
74.691324999999992

>  <s_epik_Chemistry_Notes>  (1) 
This compound contains an acetal/aminal-like group ( X-CH(R)-Y where X, Y are N, S, or O) that may be acid/base labile, releasing an aldehyde.

>  <s_epik_cmdline>  (1) 
J2VwaWtfcHl0aG9uJywgJy1waHQnLCAnMS4wJywgJy1waCcsICc3LjQnLCAnLXRuJywgJzgnLCAnLW1hJywgJzUwMCcsICctaW1hZScsICc8aW5maWxlLm1hZT4nLCAnLW9tYWUnLCAnPG91dGZpbGUubWFlPic=

>  <s_epik_input>  (1) 
W0NIM11bQ0BASF0xW0NIMl1bQ0gyXVtDSDJdTjFbQ0gyXVtDSDJdW0NIMl1OKFtDSDNdKVtDQEBIXTJbQ0gyXVtDQEBIXShbQ0BASF0oW0NIMl0zKVtDQEBIXTNbQ0BAXTI0W0NIMl1bQ0gzXSlbQ0BASF0oTzQpW0NIMl1bTkhdW0NASF0oW0NIMl1bQ0BdNShGKVtDSDNdKU9bQ0gyXVtDQEhdNUY=

>  <s_glide_docking_method>  (1) 
confgen

>  <s_i_glide_gridfile>  (1) 
gpcr_drd2_6luq_protein_autoprepared_prepared

>  <s_lp_Force_Field>  (1) 
S-OPLS

>  <s_lp_Variant>  (1) 
DiffSBDD_78-6

>  <s_m_source_file>  (1) 
generated_generic_title2_ligand_DiffSBDD_2026-06-23_prepared.sdf

>  <GenAI_Model>  (1) 
DiffSBDD

>  <Protein>  (1) 
generic_title2

$$$$
DiffSBDD_86
     RDKit          3D

  0  0  0  0  0  0  0  0  0  0999 V3000
M  V30 BEGIN CTAB
M  V30 COUNTS 113 116 0 0 1
M  V30 BEGIN ATOM
M  V30 1 C 7.079702 7.442003 -14.104102 0
M  V30 2 C 7.747138 7.369218 -12.716138 0 CFG=1
M  V30 3 C 17.401680 7.523716 -18.931160 0
M  V30 4 C 9.872540 8.336179 -22.364432 0
M  V30 5 C 8.344850 0.925603 -15.036289 0 CFG=2
M  V30 6 C 12.865839 4.543767 -17.838527 0
M  V30 7 O 6.575870 2.219867 -16.065832 0
M  V30 8 C 8.155200 1.277363 -17.575137 0 CFG=2
M  V30 9 O 6.343672 1.988127 -19.759731 0
M  V30 10 C 6.671938 1.578653 -17.351221 0 CFG=2
M  V30 11 C 8.749058 0.201545 -13.700025 0
M  V30 12 O 7.738800 8.580179 -11.984635 0
M  V30 13 N 15.681924 5.769678 -18.798595 0
M  V30 14 C 9.010259 3.793741 -11.544519 0
M  V30 15 C 6.698213 4.864451 -14.504564 0 CFG=1
M  V30 16 C 10.768216 3.977923 -18.878149 0 CFG=2
M  V30 17 O 4.974684 4.390243 -12.297357 0
M  V30 18 C 7.629474 8.096787 -21.027285 0
M  V30 19 C 6.886160 1.453857 -14.887883 0 CFG=1
M  V30 20 C 5.928551 0.183604 -14.850918 0
M  V30 21 C 7.387666 3.776754 -13.639708 0 CFG=2
M  V30 22 O 15.200664 4.922692 -21.914444 0
M  V30 23 O 12.392947 5.350821 -17.037944 0
M  V30 24 N 15.312413 3.642555 -19.922789 0
M  V30 25 C 6.796901 2.335592 -13.580862 0
M  V30 26 C 8.601686 0.298137 -16.459751 0
M  V30 27 C 18.704519 5.991857 -17.299605 0
M  V30 28 O 12.191638 3.969611 -18.852510 0
M  V30 29 P 6.268257 4.920585 -12.756918 0 CFG=1
M  V30 30 C 8.603707 7.094396 -20.437544 0 CFG=2
M  V30 31 C 7.054650 6.333305 -11.847439 0
M  V30 32 C 4.427391 0.386889 -14.999297 0
M  V30 33 C 8.702631 7.496234 -21.895678 0 CFG=2
M  V30 34 F 15.715472 5.159002 -23.244282 0
M  V30 35 C 8.116115 5.718036 -20.011693 0
M  V30 36 C 6.230960 1.855383 -12.454665 0
M  V30 37 C 8.775011 4.060853 -13.037120 0
M  V30 38 C 15.157115 4.479602 -18.938010 0
M  V30 39 C 7.320713 6.184630 -14.983525 0
M  V30 40 C 10.271257 2.541065 -18.516702 0 CFG=2
M  V30 41 C 14.314848 4.073140 -17.747802 0
M  V30 42 C 16.752672 6.311825 -19.620810 0
M  V30 43 C 6.018063 2.435326 -18.459366 0
M  V30 44 C 8.972985 2.602816 -17.699352 0
M  V30 45 O 11.198773 1.848785 -17.701888 0
M  V30 46 C 8.893139 4.550400 -20.652736 0
M  V30 47 C 10.392845 4.455713 -20.303567 0
M  V30 48 C 17.857004 7.259089 -17.481119 0
M  V30 49 C 15.919337 3.933686 -21.205300 0
M  V30 50 H 7.442906 8.319566 -14.636010 0
M  V30 51 H 6.005363 7.590235 -13.991567 0
M  V30 52 H 8.801713 7.130828 -12.826647 0
M  V30 53 H 18.260411 7.840212 -19.524523 0
M  V30 54 H 16.706693 8.365091 -18.936906 0
M  V30 55 H 10.204658 9.008984 -21.573402 0
M  V30 56 H 10.707772 7.692359 -22.638890 0
M  V30 57 H 9.590508 8.934811 -23.231218 0
M  V30 58 H 8.975410 1.782296 -15.078568 0
M  V30 59 H 8.249833 0.744935 -18.521876 0
M  V30 60 H 6.014982 1.108614 -19.873001 0
M  V30 61 H 6.125357 0.640334 -17.378781 0
M  V30 62 H 7.938074 -0.409695 -13.343060 0
M  V30 63 H 9.642591 -0.409027 -13.586498 0
M  V30 64 H 8.898792 0.950884 -12.925883 0
M  V30 65 H 7.500097 8.390259 -11.075255 0
M  V30 66 H 15.454893 6.337370 -17.993709 0
M  V30 67 H 9.784593 4.461476 -11.168163 0
M  V30 68 H 8.134732 3.945650 -10.918710 0
M  V30 69 H 9.375626 2.790211 -11.385639 0
M  V30 70 H 5.874858 4.539374 -15.130969 0
M  V30 71 H 10.374804 4.697537 -18.157059 0
M  V30 72 H 6.605545 7.772893 -21.205775 0
M  V30 73 H 7.739022 9.151639 -20.785415 0
M  V30 74 H 6.198449 -0.534715 -15.616156 0
M  V30 75 H 6.030781 -0.412032 -13.953912 0
M  V30 76 H 9.628754 0.061054 -16.740068 0
M  V30 77 H 8.087936 -0.656941 -16.554910 0
M  V30 78 H 19.006969 5.897507 -16.259010 0
M  V30 79 H 18.146110 5.092811 -17.553810 0
M  V30 80 H 19.602502 6.021883 -17.918800 0
M  V30 81 H 9.387407 7.490520 -19.796279 0
M  V30 82 H 7.693310 6.018356 -11.028332 0
M  V30 83 H 6.193021 6.790406 -11.359909 0
M  V30 84 H 3.940563 -0.580162 -14.994535 0
M  V30 85 H 3.994283 0.976979 -14.192704 0
M  V30 86 H 4.195314 0.790094 -15.974907 0
M  V30 87 H 8.351454 6.781638 -22.637617 0
M  V30 88 H 7.063692 5.619477 -20.283273 0
M  V30 89 H 8.149989 5.654762 -18.922938 0
M  V30 90 H 6.175346 2.458596 -11.573964 0
M  V30 91 H 5.820805 0.862261 -12.401994 0
M  V30 92 H 9.548503 3.591274 -13.584999 0
M  V30 93 H 9.026391 5.095373 -13.219681 0
M  V30 94 H 8.386750 6.029227 -15.149438 0
M  V30 95 H 6.908778 6.388289 -15.972663 0
M  V30 96 H 10.126010 1.961705 -19.429730 0
M  V30 97 H 14.759318 4.459582 -16.830780 0
M  V30 98 H 14.316449 2.985822 -17.660434 0
M  V30 99 H 17.532768 5.566301 -19.761978 0
M  V30 100 H 16.372226 6.613364 -20.596621 0
M  V30 101 H 6.265480 3.493236 -18.368724 0
M  V30 102 H 4.941549 2.382238 -18.385049 0
M  V30 103 H 8.368334 3.347913 -18.200040 0
M  V30 104 H 9.155983 3.065349 -16.731265 0
M  V30 105 H 11.370342 2.367825 -16.930025 0
M  V30 106 H 8.804036 4.641385 -21.735180 0
M  V30 107 H 8.397836 3.607779 -20.423392 0
M  V30 108 H 10.857951 5.424061 -20.490366 0
M  V30 109 H 10.854339 3.774463 -21.018555 0
M  V30 110 H 18.416425 8.125729 -17.127881 0
M  V30 111 H 16.989317 7.181463 -16.829400 0
M  V30 112 H 16.980182 4.159736 -21.134231 0
M  V30 113 H 15.879151 3.028027 -21.811076 0
M  V30 END ATOM
M  V30 BEGIN BOND
M  V30 1 1 2 1
M  V30 2 1 10 7
M  V30 3 1 10 8
M  V30 4 1 11 5
M  V30 5 1 12 2
M  V30 6 1 19 5
M  V30 7 1 19 7
M  V30 8 1 19 20 CFG=1
M  V30 9 1 21 15
M  V30 10 2 23 6
M  V30 11 1 25 19
M  V30 12 1 25 21
M  V30 13 1 26 5
M  V30 14 1 26 8
M  V30 15 1 28 6
M  V30 16 1 28 16
M  V30 17 1 29 15
M  V30 18 2 29 17
M  V30 19 1 29 21
M  V30 20 1 30 18
M  V30 21 1 31 2
M  V30 22 1 29 31 CFG=1
M  V30 23 1 32 20
M  V30 24 1 33 4
M  V30 25 1 33 18
M  V30 26 1 33 30
M  V30 27 1 34 22
M  V30 28 1 35 30
M  V30 29 2 36 25
M  V30 30 1 37 14
M  V30 31 1 21 37 CFG=1
M  V30 32 1 38 13
M  V30 33 2 38 24
M  V30 34 1 39 1
M  V30 35 1 39 15
M  V30 36 1 40 16
M  V30 37 1 41 6
M  V30 38 1 41 38
M  V30 39 1 42 3
M  V30 40 1 42 13
M  V30 41 1 43 9
M  V30 42 1 43 10
M  V30 43 1 44 8
M  V30 44 1 44 40
M  V30 45 1 45 40
M  V30 46 1 46 35
M  V30 47 1 47 16
M  V30 48 1 47 46
M  V30 49 1 48 3
M  V30 50 1 48 27
M  V30 51 1 49 22
M  V30 52 1 49 24
M  V30 53 1 50 1
M  V30 54 1 51 1
M  V30 55 1 2 52 CFG=3
M  V30 56 1 53 3
M  V30 57 1 54 3
M  V30 58 1 55 4
M  V30 59 1 56 4
M  V30 60 1 57 4
M  V30 61 1 5 58 CFG=3
M  V30 62 1 8 59 CFG=3
M  V30 63 1 60 9
M  V30 64 1 10 61 CFG=1
M  V30 65 1 62 11
M  V30 66 1 63 11
M  V30 67 1 64 11
M  V30 68 1 65 12
M  V30 69 1 66 13
M  V30 70 1 67 14
M  V30 71 1 68 14
M  V30 72 1 69 14
M  V30 73 1 15 70 CFG=3
M  V30 74 1 16 71 CFG=1
M  V30 75 1 72 18
M  V30 76 1 73 18
M  V30 77 1 74 20
M  V30 78 1 75 20
M  V30 79 1 76 26
M  V30 80 1 77 26
M  V30 81 1 78 27
M  V30 82 1 79 27
M  V30 83 1 80 27
M  V30 84 1 30 81 CFG=1
M  V30 85 1 82 31
M  V30 86 1 83 31
M  V30 87 1 84 32
M  V30 88 1 85 32
M  V30 89 1 86 32
M  V30 90 1 33 87 CFG=3
M  V30 91 1 88 35
M  V30 92 1 89 35
M  V30 93 1 90 36
M  V30 94 1 91 36
M  V30 95 1 92 37
M  V30 96 1 93 37
M  V30 97 1 94 39
M  V30 98 1 95 39
M  V30 99 1 40 96 CFG=3
M  V30 100 1 97 41
M  V30 101 1 98 41
M  V30 102 1 99 42
M  V30 103 1 100 42
M  V30 104 1 101 43
M  V30 105 1 102 43
M  V30 106 1 103 44
M  V30 107 1 104 44
M  V30 108 1 105 45
M  V30 109 1 106 46
M  V30 110 1 107 46
M  V30 111 1 108 47
M  V30 112 1 109 47
M  V30 113 1 110 48
M  V30 114 1 111 48
M  V30 115 1 112 49
M  V30 116 1 113 49
M  V30 END BOND
M  V30 END CTAB
M  END
>  <i_epik_Tot_Q>  (1) 
0

>  <i_epik_Tot_abs_Q>  (1) 
0

>  <i_i_glide_confnum>  (1) 
14136

>  <i_i_glide_lignum>  (1) 
155

>  <i_i_glide_posenum>  (1) 
83

>  <i_i_glide_rotatable_bonds>  (1) 
25

>  <i_lp_mmshare_version>  (1) 
72125

>  <i_m_source_file_index>  (1) 
87

>  <i_f3d_flags>  (1) 
0

>  <num_sample>  (1) 
100

>  <b_lp_Chiralities_Consistent>  (1) 
1

>  <r_epik_Charging_Adjusted_Penalty>  (1) 
1.2316584192148512

>  <r_epik_Ionization_Penalty>  (1) 
1.2316590375040075

>  <r_epik_Ionization_Penalty_Charging>  (1) 
0

>  <r_epik_Ionization_Penalty_Neutral>  (1) 
1.2316590375040075

>  <r_epik_State_Penalty>  (1) 
1.2316584192148512

>  <r_glide_ring_energy>  (1) 
0

>  <r_i_docking_score>  (1) 
-1.5228382561702607

>  <r_i_glide_ecoul>  (1) 
-6.5106005403368989

>  <r_i_glide_eff_state_penalty>  (1) 
1.2316584192148512

>  <r_i_glide_einternal>  (1) 
16.642563511207143

>  <r_i_glide_emodel>  (1) 
-13.113033840155886

>  <r_i_glide_emodel_strain>  (1) 
8.033520407288691

>  <r_i_glide_energy>  (1) 
-23.433473511593867

>  <r_i_glide_erotb>  (1) 
0.57622798544967491

>  <r_i_glide_esite>  (1) 
-0.00027669086779212132

>  <r_i_glide_evdw>  (1) 
-16.922872971256968

>  <r_i_glide_gscore>  (1) 
-2.7544966753851119

>  <r_i_glide_gscore_strain>  (1) 
1.0083801018221727

>  <r_i_glide_hbond>  (1) 
-0.16

>  <r_i_glide_ligand_efficiency>  (1) 
-0.031078331758576747

>  <r_i_glide_ligand_efficiency_ln>  (1) 
-0.3113029840361119

>  <r_i_glide_ligand_efficiency_sa>  (1) 
-0.11372511686214817

>  <r_i_glide_lipo>  (1) 
-2.2740437840282115

>  <r_i_glide_metal>  (1) 
-0

>  <r_i_glide_rewards>  (1) 
-0.082050558147572561

>  <r_lp_Energy>  (1) 
45.821346999999996

>  <s_epik_Chemistry_Notes>  (1) 
This compound has an ester and may undergo hydrolysis at high or low pH. This compound has an imine and may undergo hydrolysis. This compound contains an acetal/aminal-like group ( X-CH(R)-Y where X, Y are N, S, or O) that may be acid/base labile, releasing an aldehyde.

>  <s_epik_cmdline>  (1) 
J2VwaWtfcHl0aG9uJywgJy1waHQnLCAnMS4wJywgJy1waCcsICc3LjQnLCAnLXRuJywgJzgnLCAnLW1hJywgJzUwMCcsICctaW1hZScsICc8aW5maWxlLm1hZT4nLCAnLW9tYWUnLCAnPG91dGZpbGUubWFlPic=

>  <s_epik_input>  (1) 
W09IXVtDQEBIXShbQ0gyXTEpW0NIMl1bQ0gyXVtDQEhdKFAxMj1PKVtDQEBdMihbQ0gyXVtDSDNdKUMoPVtDSDJdKVtDQF0zKFtDSDJdW0NIM10pW0NAQEhdKFtDSDNdKVtDSDJdW0NAQEhdKFtDQEBIXShPMylbQ0gyXVtPSF0pW0NIMl1bQ0BIXShbT0hdKVtDQEhdKFtDSDJdW0NIMl1bQ0gyXVtDQEBIXTRbQ0gyXVtDQEhdNFtDSDNdKU9DKD1PKVtDSDJdQyg9TlxbQ0gyXU9GKVxbTkhdW0NIMl1bQ0gyXVtDSDJdW0NIM10=

>  <s_glide_docking_method>  (1) 
confgen

>  <s_i_glide_gridfile>  (1) 
gpcr_drd2_6luq_protein_autoprepared_prepared

>  <s_lp_Force_Field>  (1) 
S-OPLS

>  <s_lp_Variant>  (1) 
DiffSBDD_86-3

>  <s_m_source_file>  (1) 
generated_generic_title2_ligand_DiffSBDD_2026-06-23_prepared.sdf

>  <GenAI_Model>  (1) 
DiffSBDD

>  <Protein>  (1) 
generic_title2

$$$$
DiffSBDD_90
     RDKit          3D

  0  0  0  0  0  0  0  0  0  0999 V3000
M  V30 BEGIN CTAB
M  V30 COUNTS 80 84 0 0 1
M  V30 BEGIN ATOM
M  V30 1 C 7.527557 4.219612 -19.085123 0
M  V30 2 C 8.249952 3.657622 -17.849386 0 CFG=1
M  V30 3 C 7.570120 4.401667 -14.338391 0
M  V30 4 C 11.999402 3.326396 -18.619818 0 CFG=2
M  V30 5 C 6.851061 5.213992 -16.234978 0
M  V30 6 C 7.671624 4.285933 -12.897339 0 CFG=2
M  V30 7 C 9.428035 1.093712 -20.119396 0 CFG=2
M  V30 8 O 9.097035 3.874099 -20.895260 0
M  V30 9 C 8.005663 3.294930 -20.219214 0 CFG=1
M  V30 10 C 13.910880 1.644223 -17.943043 0
M  V30 11 O 16.373363 5.391192 -18.082122 0
M  V30 12 C 7.748593 4.202648 -16.539698 0
M  V30 13 C 7.158167 1.231188 -17.577202 0 CFG=2
M  V30 14 O 16.137750 3.561407 -19.350910 0 CHG=-1
M  V30 15 O 11.363676 2.828657 -17.585111 0 CHG=-1
M  V30 16 C 10.965904 1.357441 -19.912168 0 CFG=2
M  V30 17 N 11.312093 2.790237 -19.821372 0 CHG=1
M  V30 18 N 8.444704 2.056859 -19.569925 0
M  V30 19 C 14.379252 5.647351 -16.005099 0
M  V30 20 C 11.822432 0.727361 -21.028558 0
M  V30 21 O 6.574901 1.466363 -16.317365 0
M  V30 22 O 11.635817 1.423608 -22.245693 0
M  V30 23 O 8.578138 -1.504734 -17.512586 0
M  V30 24 C 8.600952 0.908216 -17.307703 0 CFG=1
M  V30 25 C 15.752017 4.390268 -18.496377 0
M  V30 26 C 9.091505 -0.294804 -19.524992 0
M  V30 27 N 6.796609 5.265617 -14.869698 0
M  V30 28 O 15.535904 5.590073 -15.590225 0
M  V30 29 C 6.561640 5.416047 -12.615051 0
M  V30 30 N 8.175410 3.730165 -15.315215 0 CHG=1
M  V30 31 C 13.533177 3.006057 -18.580431 0 CFG=2
M  V30 32 O 9.238250 6.819709 -12.384919 0
M  V30 33 O 8.974345 4.502534 -12.340070 0
M  V30 34 C 9.739972 5.586907 -12.784107 0
M  V30 35 C 13.425020 6.707991 -15.465173 0
M  V30 36 C 14.333098 4.144227 -17.905835 0
M  V30 37 C 9.207196 -0.326194 -17.975688 0 CFG=2
M  V30 38 C 9.394064 7.072122 -10.995911 0
M  V30 39 N 13.790660 4.814536 -16.940649 0
M  V30 40 C 6.048035 6.094530 -13.980857 0
M  V30 41 C 8.247916 2.144736 -18.136284 0 CFG=1
M  V30 42 H 6.449448 4.105665 -18.964011 0
M  V30 43 H 7.735138 5.275272 -19.264321 0
M  V30 44 H 9.271008 4.014174 -17.930947 0
M  V30 45 H 11.926373 4.393500 -18.840579 0
M  V30 46 H 6.270318 5.869619 -16.867889 0
M  V30 47 H 7.303818 3.296702 -12.623096 0
M  V30 48 H 9.246806 1.043028 -21.193545 0
M  V30 49 H 8.797942 4.166607 -21.745258 0
M  V30 50 H 7.210796 3.092893 -20.938156 0
M  V30 51 H 14.984387 1.463441 -18.004266 0
M  V30 52 H 13.635788 1.609723 -16.887497 0
M  V30 53 H 13.426161 0.806672 -18.437896 0
M  V30 54 H 6.575718 0.583527 -18.230102 0
M  V30 55 H 11.291875 0.868105 -19.002624 0
M  V30 56 H 11.847451 3.017805 -20.646012 0
M  V30 57 H 11.574570 -0.324361 -21.172013 0
M  V30 58 H 12.881505 0.765755 -20.769514 0
M  V30 59 H 6.336328 0.630153 -15.942812 0
M  V30 60 H 12.167828 1.017634 -22.915534 0
M  V30 61 H 8.667215 -1.577524 -16.571992 0
M  V30 62 H 8.975663 1.096234 -16.303720 0
M  V30 63 H 8.073658 -0.554920 -19.820943 0
M  V30 64 H 9.723542 -1.070443 -19.957057 0
M  V30 65 H 5.707824 4.940899 -12.130080 0
M  V30 66 H 6.901149 6.166831 -11.903013 0
M  V30 67 H 13.836542 2.966241 -19.626755 0
M  V30 68 H 10.747360 5.470173 -12.385071 0
M  V30 69 H 9.842869 5.577925 -13.868984 0
M  V30 70 H 12.384030 6.457142 -15.674839 0
M  V30 71 H 13.536214 6.790204 -14.384914 0
M  V30 72 H 13.645473 7.674118 -15.918253 0
M  V30 73 H 10.249908 -0.393073 -17.666426 0
M  V30 74 H 8.975403 8.048797 -10.753514 0
M  V30 75 H 8.880171 6.322959 -10.391959 0
M  V30 76 H 10.446784 7.085753 -10.711667 0
M  V30 77 H 6.365446 7.131725 -14.097718 0
M  V30 78 H 4.976781 5.972238 -14.158906 0
M  V30 79 H 8.845253 2.984649 -15.178381 0
M  V30 80 H 10.423317 3.275993 -19.912340 0
M  V30 END ATOM
M  V30 BEGIN BOND
M  V30 1 1 2 1
M  V30 2 1 6 3
M  V30 3 1 9 1
M  V30 4 1 9 8
M  V30 5 1 12 2
M  V30 6 2 12 5
M  V30 7 1 15 4
M  V30 8 1 16 7
M  V30 9 1 17 4
M  V30 10 1 17 16
M  V30 11 1 18 7
M  V30 12 1 18 9
M  V30 13 1 20 16
M  V30 14 1 21 13
M  V30 15 1 22 20
M  V30 16 1 24 13
M  V30 17 2 25 11
M  V30 18 1 25 14
M  V30 19 1 26 7
M  V30 20 1 27 3
M  V30 21 1 27 5
M  V30 22 2 28 19
M  V30 23 1 29 6
M  V30 24 2 30 3
M  V30 25 1 30 12
M  V30 26 1 31 4
M  V30 27 1 31 10
M  V30 28 1 33 6
M  V30 29 1 34 32
M  V30 30 1 34 33
M  V30 31 1 35 19
M  V30 32 1 36 25
M  V30 33 1 36 31
M  V30 34 1 37 23
M  V30 35 1 37 24
M  V30 36 1 37 26
M  V30 37 1 38 32
M  V30 38 1 39 19
M  V30 39 2 39 36
M  V30 40 1 40 27
M  V30 41 1 40 29
M  V30 42 1 41 2
M  V30 43 1 41 13
M  V30 44 1 41 18 CFG=3
M  V30 45 1 41 24
M  V30 46 1 42 1
M  V30 47 1 43 1
M  V30 48 1 2 44 CFG=3
M  V30 49 1 4 45 CFG=1
M  V30 50 1 46 5
M  V30 51 1 6 47 CFG=3
M  V30 52 1 7 48 CFG=3
M  V30 53 1 49 8
M  V30 54 1 9 50 CFG=3
M  V30 55 1 51 10
M  V30 56 1 52 10
M  V30 57 1 53 10
M  V30 58 1 13 54 CFG=3
M  V30 59 1 16 55 CFG=1
M  V30 60 1 56 17
M  V30 61 1 57 20
M  V30 62 1 58 20
M  V30 63 1 59 21
M  V30 64 1 60 22
M  V30 65 1 61 23
M  V30 66 1 24 62 CFG=1
M  V30 67 1 63 26
M  V30 68 1 64 26
M  V30 69 1 65 29
M  V30 70 1 66 29
M  V30 71 1 31 67 CFG=3
M  V30 72 1 68 34
M  V30 73 1 69 34
M  V30 74 1 70 35
M  V30 75 1 71 35
M  V30 76 1 72 35
M  V30 77 1 37 73 CFG=3
M  V30 78 1 74 38
M  V30 79 1 75 38
M  V30 80 1 76 38
M  V30 81 1 77 40
M  V30 82 1 78 40
M  V30 83 1 79 30
M  V30 84 1 80 17
M  V30 END BOND
M  V30 END CTAB
M  END
>  <i_epik_Tot_Q>  (1) 
0

>  <i_epik_Tot_abs_Q>  (1) 
4

>  <i_i_glide_confnum>  (1) 
1227

>  <i_i_glide_lignum>  (1) 
171

>  <i_i_glide_posenum>  (1) 
165

>  <i_i_glide_rotatable_bonds>  (1) 
16

>  <i_lp_mmshare_version>  (1) 
72125

>  <i_m_source_file_index>  (1) 
91

>  <i_f3d_flags>  (1) 
0

>  <num_sample>  (1) 
100

>  <b_lp_Chiralities_Consistent>  (1) 
1

>  <r_epik_Charging_Adjusted_Penalty>  (1) 
1.4758035429533554

>  <r_epik_Ionization_Penalty>  (1) 
0.33648449588267881

>  <r_epik_Ionization_Penalty_Charging>  (1) 
0.24231300703988756

>  <r_epik_Ionization_Penalty_Neutral>  (1) 
0.094171488842791265

>  <r_epik_State_Penalty>  (1) 
1.2334905359134678

>  <r_glide_ring_energy>  (1) 
0

>  <r_i_docking_score>  (1) 
-1.513683908167035

>  <r_i_glide_ecoul>  (1) 
-1.3602165686837147

>  <r_i_glide_eff_state_penalty>  (1) 
1.2334905359134678

>  <r_i_glide_einternal>  (1) 
17.98669117205381

>  <r_i_glide_emodel>  (1) 
-29.467217965813376

>  <r_i_glide_emodel_strain>  (1) 
0.51625777691870667

>  <r_i_glide_energy>  (1) 
-30.994147232486771

>  <r_i_glide_erotb>  (1) 
0.57888693115673628

>  <r_i_glide_esite>  (1) 
-0.012267120420719792

>  <r_i_glide_evdw>  (1) 
-29.633930663803056

>  <r_i_glide_gscore>  (1) 
-2.7471744440805028

>  <r_i_glide_gscore_strain>  (1) 
0

>  <r_i_glide_hbond>  (1) 
0

>  <r_i_glide_ligand_efficiency>  (1) 
-0.036919119711391099

>  <r_i_glide_ligand_efficiency_ln>  (1) 
-0.32113307842673777

>  <r_i_glide_ligand_efficiency_sa>  (1) 
-0.12730514508857269

>  <r_i_glide_lipo>  (1) 
-1.1056813518382089

>  <r_i_glide_metal>  (1) 
-0

>  <r_i_glide_rewards>  (1) 
-0.52238388448560047

>  <r_lp_Energy>  (1) 
73.410639000000003

>  <s_epik_Chemistry_Notes>  (1) 
This compound has an imine and may undergo hydrolysis. This compound contains an acetal/aminal-like group ( X-CH(R)-Y where X, Y are N, S, or O) that may be acid/base labile, releasing an aldehyde.

>  <s_epik_cmdline>  (1) 
J2VwaWtfcHl0aG9uJywgJy1waHQnLCAnMS4wJywgJy1waCcsICc3LjQnLCAnLXRuJywgJzgnLCAnLW1hJywgJzUwMCcsICctaW1hZScsICc8aW5maWxlLm1hZT4nLCAnLW9tYWUnLCAnPG91dGZpbGUubWFlPic=

>  <s_epik_input>  (1) 
W0NIM11PW0NIMl1PW0NASF0xW0NIMl1bQ0gyXW4oYzEyKVtjSF1jKG4yKVtDQEBIXTNbQ0gyXVtDQEBIXShbT0hdKU4oW0NAQF0zNDUpW0NASF0oW0NIMl1bQ0BIXShbT0hdKVtDQEBIXTVbQ0BIXTRbT0hdKVtDQEBIXShbQ0gyXVtPSF0pW05IXVtDQEBIXShbT0hdKVtDQEhdKFtDSDNdKUMoXEMoPU8pW09IXSk9TlxDKD1PKVtDSDNd

>  <s_glide_docking_method>  (1) 
confgen

>  <s_i_glide_gridfile>  (1) 
gpcr_drd2_6luq_protein_autoprepared_prepared

>  <s_lp_Force_Field>  (1) 
S-OPLS

>  <s_lp_Variant>  (1) 
DiffSBDD_90-6

>  <s_m_source_file>  (1) 
generated_generic_title2_ligand_DiffSBDD_2026-06-23_prepared.sdf

>  <GenAI_Model>  (1) 
DiffSBDD

>  <Protein>  (1) 
generic_title2

$$$$
DiffSBDD_61
     RDKit          3D

  0  0  0  0  0  0  0  0  0  0999 V3000
M  V30 BEGIN CTAB
M  V30 COUNTS 45 46 0 0 1
M  V30 BEGIN ATOM
M  V30 1 C 9.359705 0.820806 -18.042978 0
M  V30 2 O 6.304655 5.203264 -14.491151 0 CHG=-1
M  V30 3 C 11.375445 7.990975 -7.567909 0
M  V30 4 O 7.330840 2.922458 -15.215555 0
M  V30 5 N 7.182619 0.151540 -17.139695 0
M  V30 6 O 12.174997 8.914803 -7.308213 0 CHG=-1
M  V30 7 C 8.241760 4.971053 -10.490549 0
M  V30 8 C 8.316475 1.064847 -16.939260 0 CFG=2
M  V30 9 P 7.995141 2.937795 -16.792999 0
M  V30 10 F 10.575410 7.590226 -11.582403 0
M  V30 11 C 5.094633 -0.790551 -16.612370 0
M  V30 12 N 10.964213 7.846732 -8.855418 0
M  V30 13 O 6.284769 3.218611 -12.888342 0
M  V30 14 O 9.309835 3.619841 -16.784861 0 CHG=-1
M  V30 15 C 9.276369 5.990225 -8.525124 0
M  V30 16 O 8.514172 4.430199 -13.334814 0
M  V30 17 F 4.175420 -0.460782 -18.785024 0
M  V30 18 P 6.975733 4.003590 -13.938788 0
M  V30 19 C 10.028667 6.857016 -9.370652 0
M  V30 20 C 9.866558 6.769805 -10.772406 0
M  V30 21 C 6.370754 0.314473 -18.339181 0
M  V30 22 C 6.221545 0.082039 -16.046562 0
M  V30 23 C 5.296900 -0.748731 -18.125759 0 CFG=1
M  V30 24 C 8.982179 5.821441 -11.332668 0
M  V30 25 O 10.975409 7.217257 -6.677773 0
M  V30 26 C 8.830006 5.725151 -12.847557 0
M  V30 27 C 8.386518 5.059097 -9.092450 0
M  V30 28 O 6.975411 3.345486 -17.787645 0
M  V30 29 H 9.586647 -0.240077 -18.151088 0
M  V30 30 H 9.017905 1.199486 -19.006350 0
M  V30 31 H 10.293609 1.331901 -17.807768 0
M  V30 32 H 7.559427 4.250577 -10.915475 0
M  V30 33 H 8.773602 0.754792 -16.000196 0
M  V30 34 H 5.176124 -1.816094 -16.251414 0
M  V30 35 H 4.117798 -0.409771 -16.312549 0
M  V30 36 H 11.357356 8.480196 -9.533020 0
M  V30 37 H 9.356961 6.035349 -7.460457 0
M  V30 38 H 5.907579 1.298867 -18.373468 0
M  V30 39 H 6.932454 0.158721 -19.259825 0
M  V30 40 H 6.660349 -0.333302 -15.138494 0
M  V30 41 H 5.832580 1.074626 -15.822640 0
M  V30 42 H 5.647352 -1.716823 -18.485702 0
M  V30 43 H 8.114478 6.476842 -13.177427 0
M  V30 44 H 9.782371 5.990229 -13.306372 0
M  V30 45 H 7.810959 4.407911 -8.451499 0
M  V30 END ATOM
M  V30 BEGIN BOND
M  V30 1 1 6 3
M  V30 2 1 8 1
M  V30 3 1 8 5
M  V30 4 1 9 4
M  V30 5 1 9 8
M  V30 6 1 12 3
M  V30 7 1 14 9
M  V30 8 1 18 2
M  V30 9 1 18 4
M  V30 10 2 18 13
M  V30 11 1 18 16
M  V30 12 1 19 12
M  V30 13 2 19 15
M  V30 14 1 20 10
M  V30 15 1 20 19
M  V30 16 1 21 5
M  V30 17 1 22 5
M  V30 18 1 22 11
M  V30 19 1 23 11
M  V30 20 1 23 17
M  V30 21 1 23 21
M  V30 22 1 24 7
M  V30 23 2 24 20
M  V30 24 2 25 3
M  V30 25 1 26 16
M  V30 26 1 26 24
M  V30 27 2 27 7
M  V30 28 1 27 15
M  V30 29 2 28 9
M  V30 30 1 29 1
M  V30 31 1 30 1
M  V30 32 1 31 1
M  V30 33 1 32 7
M  V30 34 1 8 33 CFG=1
M  V30 35 1 34 11
M  V30 36 1 35 11
M  V30 37 1 36 12
M  V30 38 1 37 15
M  V30 39 1 38 21
M  V30 40 1 39 21
M  V30 41 1 40 22
M  V30 42 1 41 22
M  V30 43 1 23 42 CFG=3
M  V30 44 1 43 26
M  V30 45 1 44 26
M  V30 46 1 45 27
M  V30 END BOND
M  V30 END CTAB
M  END
>  <i_epik_Tot_Q>  (1) 
-3

>  <i_epik_Tot_abs_Q>  (1) 
3

>  <i_i_glide_confnum>  (1) 
123

>  <i_i_glide_lignum>  (1) 
98

>  <i_i_glide_posenum>  (1) 
98

>  <i_i_glide_rotatable_bonds>  (1) 
9

>  <i_lp_mmshare_version>  (1) 
72125

>  <i_m_source_file_index>  (1) 
62

>  <i_f3d_flags>  (1) 
0

>  <num_sample>  (1) 
100

>  <b_lp_Chiralities_Consistent>  (1) 
1

>  <r_epik_Charging_Adjusted_Penalty>  (1) 
1.3021205518869732

>  <r_epik_Ionization_Penalty>  (1) 
1.2351473723199373

>  <r_epik_Ionization_Penalty_Charging>  (1) 
0.00073408944429159239

>  <r_epik_Ionization_Penalty_Neutral>  (1) 
1.2344132828756458

>  <r_epik_State_Penalty>  (1) 
1.3013864624426816

>  <r_glide_ring_energy>  (1) 
0

>  <r_i_docking_score>  (1) 
-1.3828115772493199

>  <r_i_glide_ecoul>  (1) 
3.1992020885685011

>  <r_i_glide_eff_state_penalty>  (1) 
1.3013864624426816

>  <r_i_glide_einternal>  (1) 
15.223142936815508

>  <r_i_glide_emodel>  (1) 
-27.450663175485253

>  <r_i_glide_emodel_strain>  (1) 
0

>  <r_i_glide_energy>  (1) 
-30.459473338578949

>  <r_i_glide_erotb>  (1) 
0.71811031056760655

>  <r_i_glide_esite>  (1) 
-0.025047020363361119

>  <r_i_glide_evdw>  (1) 
-33.65867542714745

>  <r_i_glide_gscore>  (1) 
-2.6841980396920015

>  <r_i_glide_gscore_strain>  (1) 
0

>  <r_i_glide_hbond>  (1) 
0

>  <r_i_glide_ligand_efficiency>  (1) 
-0.049386127758904282

>  <r_i_glide_ligand_efficiency_ln>  (1) 
-0.31919351314127964

>  <r_i_glide_ligand_efficiency_sa>  (1) 
-0.1499653709163313

>  <r_i_glide_lipo>  (1) 
-0.69747125016252554

>  <r_i_glide_metal>  (1) 
-0

>  <r_i_glide_rewards>  (1) 
-1.4767366216616233

>  <r_lp_Energy>  (1) 
20.353621999999998

>  <s_epik_cmdline>  (1) 
J2VwaWtfcHl0aG9uJywgJy1waHQnLCAnMS4wJywgJy1waCcsICc3LjQnLCAnLXRuJywgJzgnLCAnLW1hJywgJzUwMCcsICctaW1hZScsICc8aW5maWxlLm1hZT4nLCAnLW9tYWUnLCAnPG91dGZpbGUubWFlPic=

>  <s_epik_input>  (1) 
W0NIMl0xW0NIMl1bQ0BASF0oRilbQ0gyXU4xW0NAQEhdKFtDSDNdKVtQQF0oPU8pKFtPSF0pT1tQQEBdKD1PKShbT0hdKU9bQ0gyXWMoYzJGKVtjSF1bY0hdW2NIXWMyW05IXUMoPU8pW09IXQ==

>  <s_glide_docking_method>  (1) 
confgen

>  <s_i_glide_gridfile>  (1) 
gpcr_drd2_6luq_protein_autoprepared_prepared

>  <s_lp_Force_Field>  (1) 
S-OPLS

>  <s_lp_Variant>  (1) 
DiffSBDD_61-3

>  <s_m_source_file>  (1) 
generated_generic_title2_ligand_DiffSBDD_2026-06-23_prepared.sdf

>  <GenAI_Model>  (1) 
DiffSBDD

>  <Protein>  (1) 
generic_title2

$$$$
DiffSBDD_37
     RDKit          3D

  0  0  0  0  0  0  0  0  0  0999 V3000
M  V30 BEGIN CTAB
M  V30 COUNTS 44 46 0 0 1
M  V30 BEGIN ATOM
M  V30 1 C 9.179668 3.462794 -18.356982 0
M  V30 2 O 15.775383 3.660670 -16.385123 0
M  V30 3 C 10.475545 5.350942 -17.337604 0 CFG=1
M  V30 4 C 14.032418 5.231588 -17.714688 0
M  V30 5 C 11.775879 5.170714 -16.512744 0
M  V30 6 C 6.558527 4.003204 -14.142594 0
M  V30 7 C 9.004304 3.531669 -16.846390 0 CFG=2
M  V30 8 O 14.019521 3.855276 -17.777306 0
M  V30 9 O 16.189394 8.063450 -18.736024 0
M  V30 10 C 12.986709 7.336480 -17.039880 0
M  V30 11 C 14.067889 8.050543 -17.584179 0
M  V30 12 C 15.574733 9.591783 -20.665536 0
M  V30 13 C 7.911589 3.701345 -14.801223 0 CFG=2
M  V30 14 C 15.115283 5.955573 -18.268925 0
M  V30 15 C 12.959371 5.928920 -17.104524 0
M  V30 16 C 14.949139 3.113109 -17.118127 0
M  V30 17 C 7.478830 1.788042 -16.227554 0
M  V30 18 C 10.393816 4.404308 -18.572848 0
M  V30 19 S 8.975168 5.190203 -14.836905 0
M  V30 20 C 15.888806 8.834352 -19.759943 0
M  V30 21 O 14.962908 1.892226 -17.259899 0 CHG=-1
M  V30 22 N 7.742819 3.220990 -16.188325 0
M  V30 23 C 9.173364 5.000430 -16.603211 0 CFG=1
M  V30 24 C 15.132375 7.363832 -18.204385 0
M  V30 25 H 8.296834 3.851605 -18.866314 0
M  V30 26 H 9.362560 2.449538 -18.715503 0
M  V30 27 H 10.402527 6.390179 -17.655474 0
M  V30 28 H 11.639109 5.590899 -15.516898 0
M  V30 29 H 11.998645 4.115086 -16.358630 0
M  V30 30 H 5.975034 3.096636 -13.985203 0
M  V30 31 H 5.968450 4.695057 -14.744230 0
M  V30 32 H 6.704236 4.460128 -13.163493 0
M  V30 33 H 9.815367 2.971176 -16.385080 0
M  V30 34 H 12.175643 7.869702 -16.571938 0
M  V30 35 H 14.080978 9.129618 -17.529164 0
M  V30 36 H 15.277002 10.259584 -21.443489 0
M  V30 37 H 8.443838 2.954960 -14.209224 0
M  V30 38 H 15.932455 5.427757 -18.738642 0
M  V30 39 H 6.553400 1.550708 -15.702360 0
M  V30 40 H 8.285859 1.217753 -15.765649 0
M  V30 41 H 7.368596 1.450325 -17.258849 0
M  V30 42 H 11.308178 3.816805 -18.668299 0
M  V30 43 H 10.285361 4.967243 -19.500312 0
M  V30 44 H 8.348606 5.543090 -17.071475 0
M  V30 END ATOM
M  V30 BEGIN BOND
M  V30 1 1 5 3
M  V30 2 1 7 1
M  V30 3 1 8 4
M  V30 4 2 11 10
M  V30 5 1 13 6
M  V30 6 1 14 4
M  V30 7 2 15 4
M  V30 8 1 15 5
M  V30 9 1 15 10
M  V30 10 2 16 2
M  V30 11 1 16 8
M  V30 12 1 18 1
M  V30 13 1 18 3
M  V30 14 1 19 13
M  V30 15 1 20 9
M  V30 16 3 20 12
M  V30 17 1 21 16
M  V30 18 1 22 7
M  V30 19 1 22 13
M  V30 20 1 22 17
M  V30 21 1 23 3
M  V30 22 1 23 7
M  V30 23 1 23 19
M  V30 24 1 24 9
M  V30 25 1 24 11
M  V30 26 2 24 14
M  V30 27 1 25 1
M  V30 28 1 26 1
M  V30 29 1 3 27 CFG=3
M  V30 30 1 28 5
M  V30 31 1 29 5
M  V30 32 1 30 6
M  V30 33 1 31 6
M  V30 34 1 32 6
M  V30 35 1 7 33 CFG=1
M  V30 36 1 34 10
M  V30 37 1 35 11
M  V30 38 1 36 12
M  V30 39 1 13 37 CFG=1
M  V30 40 1 38 14
M  V30 41 1 39 17
M  V30 42 1 40 17
M  V30 43 1 41 17
M  V30 44 1 42 18
M  V30 45 1 43 18
M  V30 46 1 23 44 CFG=3
M  V30 END BOND
M  V30 END CTAB
M  END
>  <i_epik_Tot_Q>  (1) 
-1

>  <i_epik_Tot_abs_Q>  (1) 
1

>  <i_i_glide_confnum>  (1) 
2

>  <i_i_glide_lignum>  (1) 
63

>  <i_i_glide_posenum>  (1) 
248

>  <i_i_glide_rotatable_bonds>  (1) 
6

>  <i_lp_mmshare_version>  (1) 
72125

>  <i_m_source_file_index>  (1) 
38

>  <i_f3d_flags>  (1) 
0

>  <num_sample>  (1) 
100

>  <b_lp_Chiralities_Consistent>  (1) 
1

>  <r_epik_Charging_Adjusted_Penalty>  (1) 
0.031102541531961528

>  <r_epik_Ionization_Penalty>  (1) 
0.017897684908629235

>  <r_epik_Ionization_Penalty_Charging>  (1) 
0.015551270765980757

>  <r_epik_Ionization_Penalty_Neutral>  (1) 
0.0023464141426484783

>  <r_epik_State_Penalty>  (1) 
0.015551270765980773

>  <r_glide_ring_energy>  (1) 
0

>  <r_i_docking_score>  (1) 
-1.3462993077029963

>  <r_i_glide_ecoul>  (1) 
-2.9931072063634794

>  <r_i_glide_eff_state_penalty>  (1) 
0.015551270765980773

>  <r_i_glide_einternal>  (1) 
2.6279951393687995

>  <r_i_glide_emodel>  (1) 
-24.303212269390563

>  <r_i_glide_emodel_strain>  (1) 
0.22136303741138619

>  <r_i_glide_energy>  (1) 
-23.696877442193014

>  <r_i_glide_erotb>  (1) 
0.79208317034527342

>  <r_i_glide_esite>  (1) 
-0.0039950835021180875

>  <r_i_glide_evdw>  (1) 
-20.703770235829534

>  <r_i_glide_gscore>  (1) 
-1.3618505784689772

>  <r_i_glide_gscore_strain>  (1) 
0

>  <r_i_glide_hbond>  (1) 
-0.086202171394208216

>  <r_i_glide_ligand_efficiency>  (1) 
-0.056095804487624849

>  <r_i_glide_ligand_efficiency_ln>  (1) 
-0.32223120198307198

>  <r_i_glide_ligand_efficiency_sa>  (1) 
-0.16180829983665065

>  <r_i_glide_lipo>  (1) 
-0.94855553328117981

>  <r_i_glide_metal>  (1) 
-0

>  <r_i_glide_rewards>  (1) 
0.36897363210925427

>  <r_lp_Energy>  (1) 
41.583638999999998

>  <s_epik_Chemistry_Notes>  (1) 
This compound contains an acetal/aminal-like group ( X-CH(R)-Y where X, Y are N, S, or O) that may be acid/base labile, releasing an aldehyde. This is carbonic acid which has a microscopic pka value of about 3.8 however its equilibrium with CO2 as a lewis acid yields a pKa of about 6.35.

>  <s_epik_cmdline>  (1) 
J2VwaWtfcHl0aG9uJywgJy1waHQnLCAnMS4wJywgJy1waCcsICc3LjQnLCAnLXRuJywgJzgnLCAnLW1hJywgJzUwMCcsICctaW1hZScsICc8aW5maWxlLm1hZT4nLCAnLW9tYWUnLCAnPG91dGZpbGUubWFlPic=

>  <s_epik_input>  (1) 
W0NIM11OMVtDQEhdKFtDSDNdKVNbQ0BIXShbQ0BASF0xMilbQ0BIXShbQ0gyXVtDSDJdMilbQ0gyXWMzW2NIXVtjSF1jKE9DI1tDSF0pW2NIXWMzT0MoPU8pW09IXQ==

>  <s_glide_docking_method>  (1) 
confgen

>  <s_i_glide_gridfile>  (1) 
gpcr_drd2_6luq_protein_autoprepared_prepared

>  <s_lp_Force_Field>  (1) 
S-OPLS

>  <s_lp_Variant>  (1) 
DiffSBDD_37-1

>  <s_m_source_file>  (1) 
generated_generic_title2_ligand_DiffSBDD_2026-06-23_prepared.sdf

>  <GenAI_Model>  (1) 
DiffSBDD

>  <Protein>  (1) 
generic_title2

$$$$
DiffSBDD_32
     RDKit          3D

  0  0  0  0  0  0  0  0  0  0999 V3000
M  V30 BEGIN CTAB
M  V30 COUNTS 76 79 0 0 1
M  V30 BEGIN ATOM
M  V30 1 O 9.020664 5.863748 -19.407572 0
M  V30 2 C 7.740461 -0.953041 -22.172616 0 CFG=1
M  V30 3 F 14.875344 5.095320 -19.145373 0
M  V30 4 O 9.880664 4.531933 -22.954768 0
M  V30 5 O 11.663125 2.084658 -19.157952 0
M  V30 6 C 7.943270 -0.616239 -19.592956 0
M  V30 7 C 11.007566 8.282488 -20.898692 0
M  V30 8 C 8.333344 6.994022 -21.710020 0 CFG=1
M  V30 9 O 11.584837 6.197324 -19.893809 0
M  V30 10 O 13.459709 6.042321 -21.203537 0
M  V30 11 C 8.990821 4.296063 -21.880321 0 CFG=1
M  V30 12 C 10.285389 0.189234 -18.774725 0
M  V30 13 C 8.477755 -1.319263 -20.862338 0
M  V30 14 O 9.079617 4.305507 -19.426200 0
M  V30 15 S 6.975417 8.082837 -21.185924 0
M  V30 16 C 8.942566 -0.477632 -18.445492 0
M  V30 17 C 11.153232 4.801881 -16.785892 0
M  V30 18 C 6.247183 -1.355165 -22.138840 0
M  V30 19 C 9.285771 6.426529 -20.689292 0 CFG=2
M  V30 20 C 12.226882 5.867485 -16.647078 0 CFG=2
M  V30 21 O 9.869785 5.379170 -16.735252 0
M  V30 22 C 8.662283 -0.928974 -17.210407 0
M  V30 23 F 13.640895 8.300145 -18.389094 0
M  V30 24 C 9.285810 1.094191 -22.893217 0
M  V30 25 O 14.064779 7.255693 -17.484580 0
M  V30 26 C 13.355600 6.041737 -17.633438 0 CFG=2
M  V30 27 C 9.646033 2.182264 -20.476267 0 CFG=1
M  V30 28 C 9.693134 3.733782 -20.611059 0 CFG=1
M  V30 29 C 13.569127 5.250694 -18.918182 0 CFG=1
M  V30 30 C 5.988973 -2.860264 -21.981437 0
M  V30 31 N 13.547020 5.283624 -16.417439 0
M  V30 32 C 8.264293 5.538847 -21.463178 0 CFG=1
M  V30 33 C 7.870561 0.536868 -22.589443 0
M  V30 34 C 12.874698 5.874667 -20.132721 0
M  V30 35 C 10.769587 6.761479 -20.919642 0 CFG=1
M  V30 36 C 10.238252 1.444379 -21.717384 0
M  V30 37 C 10.298366 1.705042 -19.135840 0 CFG=2
M  V30 38 H 8.206447 -1.536781 -22.967885 0
M  V30 39 H 9.378704 4.779796 -23.717144 0
M  V30 40 H 12.088498 1.619133 -19.862554 0
M  V30 41 H 7.507011 0.351698 -19.806524 0
M  V30 42 H 7.091415 -1.196018 -19.234569 0
M  V30 43 H 10.421961 8.794041 -21.662192 0
M  V30 44 H 10.746735 8.711765 -19.930978 0
M  V30 45 H 12.055046 8.513491 -21.092770 0
M  V30 46 H 8.751298 7.288918 -22.670771 0
M  V30 47 H 8.224323 3.599968 -22.218511 0
M  V30 48 H 10.894454 0.086398 -17.874649 0
M  V30 49 H 10.828064 -0.409293 -19.500673 0
M  V30 50 H 8.434409 -2.396041 -20.701561 0
M  V30 51 H 9.532841 -1.140709 -21.017440 0
M  V30 52 H 6.734727 7.496960 -20.009185 0
M  V30 53 H 11.256316 4.264113 -17.725043 0
M  V30 54 H 11.246392 4.072353 -15.985809 0
M  V30 55 H 5.731418 -0.814496 -21.344642 0
M  V30 56 H 5.771332 -1.034439 -23.066453 0
M  V30 57 H 12.043034 6.650096 -15.913226 0
M  V30 58 H 9.629858 5.659391 -17.609870 0
M  V30 59 H 9.374929 -0.834036 -16.405553 0
M  V30 60 H 7.715575 -1.401888 -16.990976 0
M  V30 61 H 9.157321 1.989046 -23.500168 0
M  V30 62 H 9.800294 0.398471 -23.557097 0
M  V30 63 H 8.592943 1.964361 -20.394688 0
M  V30 64 H 10.739126 4.023933 -20.628444 0
M  V30 65 H 13.174298 4.243074 -18.799262 0
M  V30 66 H 4.921519 -3.071724 -22.049269 0
M  V30 67 H 6.490165 -3.431203 -22.763018 0
M  V30 68 H 6.329589 -3.232226 -21.015545 0
M  V30 69 H 13.513076 4.289402 -16.617617 0
M  V30 70 H 7.332248 5.276769 -20.961434 0
M  V30 71 H 7.325748 1.181407 -21.903582 0
M  V30 72 H 7.315319 0.641184 -23.522902 0
M  V30 73 H 11.068054 6.380451 -21.895184 0
M  V30 74 H 11.059039 2.043172 -22.115028 0
M  V30 75 H 10.739933 0.530907 -21.421199 0
M  V30 76 H 9.830671 2.233047 -18.303864 0
M  V30 END ATOM
M  V30 BEGIN BOND
M  V30 1 1 11 4
M  V30 2 1 13 2
M  V30 3 1 13 6
M  V30 4 1 14 1
M  V30 5 1 15 8
M  V30 6 1 16 6
M  V30 7 1 16 12
M  V30 8 1 18 2
M  V30 9 1 19 1 CFG=1
M  V30 10 1 19 8
M  V30 11 1 20 17
M  V30 12 1 21 17
M  V30 13 2 22 16
M  V30 14 1 25 23
M  V30 15 1 26 20
M  V30 16 1 26 25 CFG=1
M  V30 17 1 28 11
M  V30 18 1 28 14
M  V30 19 1 28 27
M  V30 20 1 29 3
M  V30 21 1 29 26
M  V30 22 1 30 18
M  V30 23 1 31 20
M  V30 24 1 31 26
M  V30 25 1 32 8
M  V30 26 1 32 11
M  V30 27 1 32 19
M  V30 28 1 33 2
M  V30 29 1 33 24
M  V30 30 1 34 9
M  V30 31 2 34 10
M  V30 32 1 34 29
M  V30 33 1 35 7
M  V30 34 1 35 9
M  V30 35 1 35 19
M  V30 36 1 36 24
M  V30 37 1 36 27
M  V30 38 1 37 5
M  V30 39 1 37 12
M  V30 40 1 37 27
M  V30 41 1 2 38 CFG=3
M  V30 42 1 39 4
M  V30 43 1 40 5
M  V30 44 1 41 6
M  V30 45 1 42 6
M  V30 46 1 43 7
M  V30 47 1 44 7
M  V30 48 1 45 7
M  V30 49 1 8 46 CFG=3
M  V30 50 1 11 47 CFG=3
M  V30 51 1 48 12
M  V30 52 1 49 12
M  V30 53 1 50 13
M  V30 54 1 51 13
M  V30 55 1 52 15
M  V30 56 1 53 17
M  V30 57 1 54 17
M  V30 58 1 55 18
M  V30 59 1 56 18
M  V30 60 1 20 57 CFG=1
M  V30 61 1 58 21
M  V30 62 1 59 22
M  V30 63 1 60 22
M  V30 64 1 61 24
M  V30 65 1 62 24
M  V30 66 1 27 63 CFG=1
M  V30 67 1 28 64 CFG=3
M  V30 68 1 29 65 CFG=1
M  V30 69 1 66 30
M  V30 70 1 67 30
M  V30 71 1 68 30
M  V30 72 1 69 31
M  V30 73 1 32 70 CFG=1
M  V30 74 1 71 33
M  V30 75 1 72 33
M  V30 76 1 35 73 CFG=3
M  V30 77 1 74 36
M  V30 78 1 75 36
M  V30 79 1 37 76 CFG=1
M  V30 END BOND
M  V30 END CTAB
M  END
>  <i_epik_Tot_Q>  (1) 
0

>  <i_epik_Tot_abs_Q>  (1) 
0

>  <i_i_glide_confnum>  (1) 
189

>  <i_i_glide_lignum>  (1) 
54

>  <i_i_glide_posenum>  (1) 
116

>  <i_i_glide_rotatable_bonds>  (1) 
13

>  <i_lp_mmshare_version>  (1) 
72125

>  <i_m_source_file_index>  (1) 
33

>  <i_f3d_flags>  (1) 
0

>  <num_sample>  (1) 
100

>  <b_lp_Chiralities_Consistent>  (1) 
1

>  <r_epik_Charging_Adjusted_Penalty>  (1) 
0.093290770244600377

>  <r_epik_Ionization_Penalty>  (1) 
0.093291904882598309

>  <r_epik_Ionization_Penalty_Charging>  (1) 
0

>  <r_epik_Ionization_Penalty_Neutral>  (1) 
0.093291904882598309

>  <r_epik_State_Penalty>  (1) 
0.093290770244600377

>  <r_glide_ring_energy>  (1) 
0

>  <r_i_docking_score>  (1) 
-1.2121434178070662

>  <r_i_glide_ecoul>  (1) 
-0.13321120762551009

>  <r_i_glide_eff_state_penalty>  (1) 
0.093290770244600377

>  <r_i_glide_einternal>  (1) 
19.041085094252178

>  <r_i_glide_emodel>  (1) 
-13.375325561511735

>  <r_i_glide_emodel_strain>  (1) 
0.18793372766110394

>  <r_i_glide_energy>  (1) 
-20.960594174963706

>  <r_i_glide_erotb>  (1) 
0.4066656280010113

>  <r_i_glide_esite>  (1) 
-0.041790265233624113

>  <r_i_glide_evdw>  (1) 
-20.827382967338195

>  <r_i_glide_gscore>  (1) 
-1.3054341880516667

>  <r_i_glide_gscore_strain>  (1) 
0

>  <r_i_glide_hbond>  (1) 
0

>  <r_i_glide_ligand_efficiency>  (1) 
-0.032760632913704492

>  <r_i_glide_ligand_efficiency_ln>  (1) 
-0.26288549064885391

>  <r_i_glide_ligand_efficiency_sa>  (1) 
-0.10916569686879776

>  <r_i_glide_lipo>  (1) 
-0.42509573457114586

>  <r_i_glide_metal>  (1) 
-0

>  <r_i_glide_rewards>  (1) 
-0.18386298673717139

>  <r_lp_Energy>  (1) 
49.816001

>  <s_epik_Chemistry_Notes>  (1) 
This compound has an ester and may undergo hydrolysis at high or low pH.

>  <s_epik_cmdline>  (1) 
J2VwaWtfcHl0aG9uJywgJy1waHQnLCAnMS4wJywgJy1waCcsICc3LjQnLCAnLXRuJywgJzgnLCAnLW1hJywgJzUwMCcsICctaW1hZScsICc8aW5maWxlLm1hZT4nLCAnLW9tYWUnLCAnPG91dGZpbGUubWFlPic=

>  <s_epik_input>  (1) 
W0NIM11bQ0gyXVtDQEBIXTFbQ0gyXVtDSDJdQyg9W0NIMl0pW0NIMl1bQ0BASF0oW09IXSlbQ0BIXShbQ0gyXVtDSDJdW0NIMl0xKVtDQEhdKE9PMilbQ0BIXShbT0hdKVtDQEhdKFtDQEhdM1tTSF0pW0NAXTIzW0NAQEhdKFtDSDNdKU9DKD1PKVtDQEBIXShGKUM0KE9GKVtDQEhdKFtOSF00KVtDSDJdW09IXQ==

>  <s_glide_docking_method>  (1) 
confgen

>  <s_i_glide_gridfile>  (1) 
gpcr_drd2_6luq_protein_autoprepared_prepared

>  <s_lp_Force_Field>  (1) 
S-OPLS

>  <s_lp_Variant>  (1) 
DiffSBDD_32-1

>  <s_m_source_file>  (1) 
generated_generic_title2_ligand_DiffSBDD_2026-06-23_prepared.sdf

>  <GenAI_Model>  (1) 
DiffSBDD

>  <Protein>  (1) 
generic_title2

$$$$
DiffSBDD_32
     RDKit          3D

  0  0  0  0  0  0  0  0  0  0999 V3000
M  V30 BEGIN CTAB
M  V30 COUNTS 75 78 0 0 1
M  V30 BEGIN ATOM
M  V30 1 O 13.518576 3.264289 -19.988281 0
M  V30 2 C 8.119439 -2.095151 -21.512756 0 CFG=1
M  V30 3 F 16.265442 7.329146 -18.110793 0
M  V30 4 O 12.286186 0.491972 -17.585026 0
M  V30 5 O 9.421961 0.041959 -17.943813 0
M  V30 6 C 6.612150 -0.473435 -20.062154 0
M  V30 7 C 14.716367 2.626655 -16.382763 0
M  V30 8 C 14.987105 1.255571 -18.944969 0 CFG=1
M  V30 9 O 14.027734 4.613758 -17.602817 0
M  V30 10 O 16.234833 4.666883 -18.232502 0
M  V30 11 C 12.266139 0.852472 -18.948287 0 CFG=1
M  V30 12 C 7.494947 1.461359 -18.577043 0
M  V30 13 C 7.455832 -1.764357 -20.148334 0
M  V30 14 O 12.002080 2.958207 -20.223163 0
M  V30 15 S 16.303154 1.290085 -20.191641 0 CHG=-1
M  V30 16 C 6.667650 0.177761 -18.687473 0
M  V30 17 C 15.163756 9.057014 -20.342196 0
M  V30 18 C 7.165840 -2.772354 -22.523742 0
M  V30 19 C 14.105080 2.509934 -18.917795 0 CFG=2
M  V30 20 C 13.943527 8.462870 -19.654265 0 CFG=2
M  V30 21 O 15.375427 10.389494 -19.922676 0
M  V30 22 C 6.012788 -0.338288 -17.633132 0
M  V30 23 F 12.575489 7.798846 -16.627189 0
M  V30 24 C 9.948704 -0.258549 -21.205231 0
M  V30 25 O 12.657682 7.252159 -17.962575 0
M  V30 26 C 13.928635 7.414635 -18.556620 0 CFG=2
M  V30 27 C 9.903181 1.856825 -19.593404 0 CFG=1
M  V30 28 C 11.391762 2.104892 -19.228441 0 CFG=1
M  V30 29 C 15.096870 6.764543 -17.806719 0 CFG=1
M  V30 30 C 6.015448 -1.905992 -23.057822 0
M  V30 31 N 13.792075 7.047750 -19.956552 0
M  V30 32 C 13.625569 1.155648 -19.492723 0 CFG=1
M  V30 33 C 8.951741 -0.956275 -22.155950 0
M  V30 34 C 15.190317 5.234911 -17.911256 0
M  V30 35 C 13.886956 3.190775 -17.544184 0 CFG=1
M  V30 36 C 9.645811 1.240918 -20.992160 0
M  V30 37 C 9.036902 1.320916 -18.410190 0 CFG=2
M  V30 38 H 8.848837 -2.870941 -21.274011 0
M  V30 39 H 11.399806 0.240183 -17.355475 0
M  V30 40 H 8.727016 -0.292111 -17.392974 0
M  V30 41 H 6.884219 0.250024 -20.824106 0
M  V30 42 H 5.567053 -0.710565 -20.265081 0
M  V30 43 H 14.419552 1.606738 -16.141734 0
M  V30 44 H 15.775489 2.620145 -16.609987 0
M  V30 45 H 14.576328 3.233093 -15.489867 0
M  V30 46 H 15.227720 0.666270 -18.063315 0
M  V30 47 H 11.906324 -0.010227 -19.496080 0
M  V30 48 H 7.248680 2.121527 -19.408971 0
M  V30 49 H 7.121713 1.992373 -17.699827 0
M  V30 50 H 6.839134 -2.606190 -19.831205 0
M  V30 51 H 8.239453 -1.726528 -19.395217 0
M  V30 52 H 15.002638 9.055147 -21.420999 0
M  V30 53 H 16.059311 8.467080 -20.157326 0
M  V30 54 H 7.751407 -3.127333 -23.373240 0
M  V30 55 H 6.743602 -3.669058 -22.069378 0
M  V30 56 H 13.010600 8.994813 -19.823584 0
M  V30 57 H 14.715262 10.951060 -20.313680 0
M  V30 58 H 6.053992 0.135956 -16.663313 0
M  V30 59 H 5.427762 -1.241920 -17.729220 0
M  V30 60 H 10.954736 -0.350386 -21.616637 0
M  V30 61 H 9.991515 -0.793492 -20.262706 0
M  V30 62 H 9.529258 2.874739 -19.716781 0
M  V30 63 H 11.330940 2.719376 -18.337125 0
M  V30 64 H 14.962102 6.988232 -16.749982 0
M  V30 65 H 5.439558 -2.453742 -23.803477 0
M  V30 66 H 5.322827 -1.627005 -22.267976 0
M  V30 67 H 6.371141 -0.992430 -23.531854 0
M  V30 68 H 14.673129 6.668040 -20.289196 0
M  V30 69 H 13.637129 1.023710 -20.575492 0
M  V30 70 H 8.295454 -0.223294 -22.622064 0
M  V30 71 H 9.516892 -1.380291 -22.987370 0
M  V30 72 H 12.865654 3.043665 -17.221914 0
M  V30 73 H 8.610457 1.453889 -21.243502 0
M  V30 74 H 10.206391 1.805866 -21.737307 0
M  V30 75 H 9.276656 1.973202 -17.568739 0
M  V30 END ATOM
M  V30 BEGIN BOND
M  V30 1 1 11 4
M  V30 2 1 13 2
M  V30 3 1 13 6
M  V30 4 1 14 1
M  V30 5 1 15 8
M  V30 6 1 16 6
M  V30 7 1 16 12
M  V30 8 1 18 2
M  V30 9 1 19 1 CFG=3
M  V30 10 1 19 8
M  V30 11 1 20 17
M  V30 12 1 21 17
M  V30 13 2 22 16
M  V30 14 1 25 23
M  V30 15 1 26 20
M  V30 16 1 26 25 CFG=1
M  V30 17 1 28 11
M  V30 18 1 28 14
M  V30 19 1 28 27
M  V30 20 1 29 3
M  V30 21 1 29 26
M  V30 22 1 30 18
M  V30 23 1 31 20
M  V30 24 1 31 26
M  V30 25 1 32 8
M  V30 26 1 32 11
M  V30 27 1 32 19
M  V30 28 1 33 2
M  V30 29 1 33 24
M  V30 30 1 34 9
M  V30 31 2 34 10
M  V30 32 1 34 29
M  V30 33 1 35 7
M  V30 34 1 35 9
M  V30 35 1 35 19
M  V30 36 1 36 24
M  V30 37 1 36 27
M  V30 38 1 37 5
M  V30 39 1 37 12
M  V30 40 1 37 27
M  V30 41 1 2 38 CFG=1
M  V30 42 1 39 4
M  V30 43 1 40 5
M  V30 44 1 41 6
M  V30 45 1 42 6
M  V30 46 1 43 7
M  V30 47 1 44 7
M  V30 48 1 45 7
M  V30 49 1 8 46 CFG=1
M  V30 50 1 11 47 CFG=3
M  V30 51 1 48 12
M  V30 52 1 49 12
M  V30 53 1 50 13
M  V30 54 1 51 13
M  V30 55 1 52 17
M  V30 56 1 53 17
M  V30 57 1 54 18
M  V30 58 1 55 18
M  V30 59 1 20 56 CFG=1
M  V30 60 1 57 21
M  V30 61 1 58 22
M  V30 62 1 59 22
M  V30 63 1 60 24
M  V30 64 1 61 24
M  V30 65 1 27 62 CFG=3
M  V30 66 1 28 63 CFG=1
M  V30 67 1 29 64 CFG=1
M  V30 68 1 65 30
M  V30 69 1 66 30
M  V30 70 1 67 30
M  V30 71 1 68 31
M  V30 72 1 32 69 CFG=3
M  V30 73 1 70 33
M  V30 74 1 71 33
M  V30 75 1 35 72 CFG=1
M  V30 76 1 73 36
M  V30 77 1 74 36
M  V30 78 1 37 75 CFG=1
M  V30 END BOND
M  V30 END CTAB
M  END
>  <i_epik_Tot_Q>  (1) 
-1

>  <i_epik_Tot_abs_Q>  (1) 
1

>  <i_i_glide_confnum>  (1) 
163

>  <i_i_glide_lignum>  (1) 
55

>  <i_i_glide_posenum>  (1) 
110

>  <i_i_glide_rotatable_bonds>  (1) 
12

>  <i_lp_mmshare_version>  (1) 
72125

>  <i_m_source_file_index>  (1) 
33

>  <i_f3d_flags>  (1) 
0

>  <num_sample>  (1) 
100

>  <b_lp_Chiralities_Consistent>  (1) 
1

>  <r_epik_Charging_Adjusted_Penalty>  (1) 
2.2826120202495259

>  <r_epik_Ionization_Penalty>  (1) 
1.1413067509942614

>  <r_epik_Ionization_Penalty_Charging>  (1) 
1.1413060101247627

>  <r_epik_Ionization_Penalty_Neutral>  (1) 
7.4086949864391441e-07

>  <r_epik_State_Penalty>  (1) 
1.141306010124763

>  <r_glide_ring_energy>  (1) 
0

>  <r_i_docking_score>  (1) 
-1.2028635739376092

>  <r_i_glide_ecoul>  (1) 
-3.7636021313238643

>  <r_i_glide_eff_state_penalty>  (1) 
1.141306010124763

>  <r_i_glide_einternal>  (1) 
11.231909446241296

>  <r_i_glide_emodel>  (1) 
-23.203964200516378

>  <r_i_glide_emodel_strain>  (1) 
0.14635287188788482

>  <r_i_glide_energy>  (1) 
-26.646512418690332

>  <r_i_glide_erotb>  (1) 
0.40941976569591371

>  <r_i_glide_esite>  (1) 
-0.0052385439382438134

>  <r_i_glide_evdw>  (1) 
-22.882910287366467

>  <r_i_glide_gscore>  (1) 
-2.3441695840623722

>  <r_i_glide_gscore_strain>  (1) 
0

>  <r_i_glide_hbond>  (1) 
-0.39859266396739396

>  <r_i_glide_ligand_efficiency>  (1) 
-0.032509826322638088

>  <r_i_glide_ligand_efficiency_ln>  (1) 
-0.26087291006397528

>  <r_i_glide_ligand_efficiency_sa>  (1) 
-0.10832995366550946

>  <r_i_glide_lipo>  (1) 
-0.52508457651644436

>  <r_i_glide_metal>  (1) 
-0

>  <r_i_glide_rewards>  (1) 
-0.11598773126930059

>  <r_lp_Energy>  (1) 
53.843353

>  <s_epik_Chemistry_Notes>  (1) 
This compound has an ester and may undergo hydrolysis at high or low pH.

>  <s_epik_cmdline>  (1) 
J2VwaWtfcHl0aG9uJywgJy1waHQnLCAnMS4wJywgJy1waCcsICc3LjQnLCAnLXRuJywgJzgnLCAnLW1hJywgJzUwMCcsICctaW1hZScsICc8aW5maWxlLm1hZT4nLCAnLW9tYWUnLCAnPG91dGZpbGUubWFlPic=

>  <s_epik_input>  (1) 
W0NIM11bQ0gyXVtDQEBIXTFbQ0gyXVtDSDJdQyg9W0NIMl0pW0NIMl1bQ0BASF0oW09IXSlbQ0BIXShbQ0gyXVtDSDJdW0NIMl0xKVtDQEhdKE9PMilbQ0BIXShbT0hdKVtDQEhdKFtDQEhdM1tTSF0pW0NAXTIzW0NAQEhdKFtDSDNdKU9DKD1PKVtDQEBIXShGKUM0KE9GKVtDQEhdKFtOSF00KVtDSDJdW09IXQ==

>  <s_glide_docking_method>  (1) 
confgen

>  <s_i_glide_gridfile>  (1) 
gpcr_drd2_6luq_protein_autoprepared_prepared

>  <s_lp_Force_Field>  (1) 
S-OPLS

>  <s_lp_Variant>  (1) 
DiffSBDD_32-2

>  <s_m_source_file>  (1) 
generated_generic_title2_ligand_DiffSBDD_2026-06-23_prepared.sdf

>  <GenAI_Model>  (1) 
DiffSBDD

>  <Protein>  (1) 
generic_title2

$$$$
DiffSBDD_87
     RDKit          3D

  0  0  0  0  0  0  0  0  0  0999 V3000
M  V30 BEGIN CTAB
M  V30 COUNTS 76 79 0 0 1
M  V30 BEGIN ATOM
M  V30 1 S 6.702919 5.550519 -20.286816 0
M  V30 2 C 12.301741 9.622657 -6.341752 0
M  V30 3 C 9.193369 6.280459 -8.645066 0
M  V30 4 C 11.310105 7.065617 -7.705789 0
M  V30 5 O 6.703551 3.459536 -23.068736 0
M  V30 6 C 6.152814 7.214906 -15.005945 0
M  V30 7 C 9.058710 5.757553 -13.003799 0
M  V30 8 C 6.325826 2.143957 -22.639690 0
M  V30 9 C 5.302676 7.789217 -19.356468 0
M  V30 10 C 7.303703 6.434098 -14.713427 0
M  V30 11 C 11.775076 6.391248 -5.212743 0
M  V30 12 C 6.875101 3.164421 -21.674829 0 CFG=2
M  V30 13 O 4.977961 5.700352 -18.163584 0
M  V30 14 C 9.871181 6.066334 -11.898520 0
M  V30 15 C 5.988206 3.942935 -20.729366 0
M  V30 16 C 5.261346 6.263350 -19.441028 0 CFG=2
M  V30 17 N 10.230472 7.329834 -8.709505 0 CFG=1 CHG=1
M  V30 18 C 6.911015 5.191108 -16.798204 0
M  V30 19 C 7.670168 5.414486 -15.631061 0
M  V30 20 C 11.030056 9.474614 -5.526250 0
M  V30 21 C 5.764724 5.968575 -17.060748 0
M  V30 22 C 5.391532 6.977929 -16.165650 0
M  V30 23 C 8.019700 7.936560 -12.801103 0
M  V30 24 C 9.624291 6.115807 -6.227658 0
M  V30 25 N 10.341944 8.310244 -5.599997 0
M  V30 26 C 10.813990 7.065374 -6.222424 0 CFG=2
M  V30 27 C 8.575461 6.374360 -7.263334 0
M  V30 28 O 10.646597 10.408601 -4.834535 0
M  V30 29 C 12.157177 7.672241 -10.401526 0
M  V30 30 C 4.069497 8.611439 -21.452863 0
M  V30 31 C 10.661581 7.719647 -10.083555 0 CFG=1
M  V30 32 C 8.124049 6.700856 -13.485655 0
M  V30 33 C 9.756493 7.324785 -11.254383 0
M  V30 34 C 5.391488 8.564086 -20.683022 0
M  V30 35 C 8.817738 8.234903 -11.707525 0
M  V30 36 H 12.975329 8.791109 -6.288548 0
M  V30 37 H 12.027149 9.795416 -7.378884 0
M  V30 38 H 12.856641 10.489425 -5.987712 0
M  V30 39 H 8.407846 6.390121 -9.384254 0
M  V30 40 H 9.627640 5.296961 -8.832341 0
M  V30 41 H 11.645688 6.052733 -7.901625 0
M  V30 42 H 12.192287 7.667703 -7.867621 0
M  V30 43 H 5.843257 7.988945 -14.331941 0
M  V30 44 H 9.169092 4.800893 -13.492041 0
M  V30 45 H 6.975503 1.350098 -23.003614 0
M  V30 46 H 5.254294 1.949678 -22.657753 0
M  V30 47 H 4.449282 8.152901 -18.784321 0
M  V30 48 H 6.175225 7.990055 -18.764273 0
M  V30 49 H 12.480844 5.722843 -5.705309 0
M  V30 50 H 12.287015 7.106818 -4.573051 0
M  V30 51 H 11.251324 5.776497 -4.480189 0
M  V30 52 H 7.911217 3.046510 -21.363164 0
M  V30 53 H 10.575335 5.346076 -11.569487 0
M  V30 54 H 5.827796 3.364093 -19.819522 0
M  V30 55 H 5.016849 4.093769 -21.199502 0
M  V30 56 H 4.398939 6.014078 -20.058823 0
M  V30 57 H 7.198865 4.407408 -17.483565 0
M  V30 58 H 8.542847 4.809758 -15.446845 0
M  V30 59 H 4.509364 7.569940 -16.361078 0
M  V30 60 H 7.375435 8.677239 -13.152481 0
M  V30 61 H 9.180864 5.990297 -5.241610 0
M  V30 62 H 10.033400 5.190253 -6.567734 0
M  V30 63 H 9.472174 8.251287 -5.089738 0
M  V30 64 H 8.176934 7.367660 -7.076216 0
M  V30 65 H 7.775514 5.638256 -7.168906 0
M  V30 66 H 12.340289 7.665340 -11.473582 0
M  V30 67 H 12.688291 8.526498 -9.975688 0
M  V30 68 H 12.595812 6.790198 -9.984888 0
M  V30 69 H 4.155051 9.253039 -22.329135 0
M  V30 70 H 3.775881 7.621532 -21.798275 0
M  V30 71 H 3.264393 9.009251 -20.835137 0
M  V30 72 H 10.501239 8.793294 -10.003940 0
M  V30 73 H 5.692242 9.588403 -20.458876 0
M  V30 74 H 6.176392 8.156098 -21.319291 0
M  V30 75 H 8.719128 9.189392 -11.225603 0
M  V30 76 H 9.736798 8.146476 -8.375111 0
M  V30 END ATOM
M  V30 BEGIN BOND
M  V30 1 1 8 5
M  V30 2 2 10 6
M  V30 3 1 12 5
M  V30 4 1 12 8
M  V30 5 2 14 7
M  V30 6 1 15 1
M  V30 7 1 15 12
M  V30 8 1 16 1
M  V30 9 1 16 9
M  V30 10 1 16 13
M  V30 11 1 17 3
M  V30 12 1 17 4
M  V30 13 1 19 10
M  V30 14 2 19 18
M  V30 15 1 20 2
M  V30 16 1 21 13
M  V30 17 1 21 18
M  V30 18 1 22 6
M  V30 19 2 22 21
M  V30 20 1 25 20
M  V30 21 1 26 4
M  V30 22 1 26 11
M  V30 23 1 26 24
M  V30 24 1 26 25 CFG=1
M  V30 25 1 27 3
M  V30 26 1 27 24
M  V30 27 2 28 20
M  V30 28 1 31 17
M  V30 29 1 31 29
M  V30 30 1 32 7
M  V30 31 1 32 10
M  V30 32 2 32 23
M  V30 33 1 33 14
M  V30 34 1 33 31
M  V30 35 1 34 9
M  V30 36 1 34 30
M  V30 37 1 35 23
M  V30 38 2 35 33
M  V30 39 1 36 2
M  V30 40 1 37 2
M  V30 41 1 38 2
M  V30 42 1 39 3
M  V30 43 1 40 3
M  V30 44 1 41 4
M  V30 45 1 42 4
M  V30 46 1 43 6
M  V30 47 1 44 7
M  V30 48 1 45 8
M  V30 49 1 46 8
M  V30 50 1 47 9
M  V30 51 1 48 9
M  V30 52 1 49 11
M  V30 53 1 50 11
M  V30 54 1 51 11
M  V30 55 1 12 52 CFG=1
M  V30 56 1 53 14
M  V30 57 1 54 15
M  V30 58 1 55 15
M  V30 59 1 16 56 CFG=3
M  V30 60 1 57 18
M  V30 61 1 58 19
M  V30 62 1 59 22
M  V30 63 1 60 23
M  V30 64 1 61 24
M  V30 65 1 62 24
M  V30 66 1 63 25
M  V30 67 1 64 27
M  V30 68 1 65 27
M  V30 69 1 66 29
M  V30 70 1 67 29
M  V30 71 1 68 29
M  V30 72 1 69 30
M  V30 73 1 70 30
M  V30 74 1 71 30
M  V30 75 1 31 72 CFG=1
M  V30 76 1 73 34
M  V30 77 1 74 34
M  V30 78 1 75 35
M  V30 79 1 17 76 CFG=1
M  V30 END BOND
M  V30 END CTAB
M  END
>  <i_epik_Tot_Q>  (1) 
1

>  <i_epik_Tot_abs_Q>  (1) 
1

>  <i_i_glide_confnum>  (1) 
1215

>  <i_i_glide_lignum>  (1) 
158

>  <i_i_glide_posenum>  (1) 
76

>  <i_i_glide_rotatable_bonds>  (1) 
12

>  <i_lp_mmshare_version>  (1) 
72125

>  <i_m_source_file_index>  (1) 
88

>  <i_f3d_flags>  (1) 
0

>  <num_sample>  (1) 
100

>  <b_lp_Chiralities_Consistent>  (1) 
1

>  <r_epik_Charging_Adjusted_Penalty>  (1) 
0.24591797925462006

>  <r_epik_Ionization_Penalty>  (1) 
0.12295908446121387

>  <r_epik_Ionization_Penalty_Charging>  (1) 
0.12295898962731001

>  <r_epik_Ionization_Penalty_Neutral>  (1) 
9.4833903855356945e-08

>  <r_epik_State_Penalty>  (1) 
0.12295898962731003

>  <r_glide_ring_energy>  (1) 
0

>  <r_i_docking_score>  (1) 
-1.1947079689467239

>  <r_i_glide_ecoul>  (1) 
-2.2669618676612093

>  <r_i_glide_eff_state_penalty>  (1) 
0.12295898962731003

>  <r_i_glide_einternal>  (1) 
22.963866666872335

>  <r_i_glide_emodel>  (1) 
-4.7344362794119768

>  <r_i_glide_emodel_strain>  (1) 
2.7883995070447014

>  <r_i_glide_energy>  (1) 
-14.338439216434351

>  <r_i_glide_erotb>  (1) 
0.74116783978336576

>  <r_i_glide_esite>  (1) 
-0.05523533684515447

>  <r_i_glide_evdw>  (1) 
-12.071477348773142

>  <r_i_glide_gscore>  (1) 
-1.3176669585740339

>  <r_i_glide_gscore_strain>  (1) 
0

>  <r_i_glide_hbond>  (1) 
0

>  <r_i_glide_ligand_efficiency>  (1) 
-0.034134513398477825

>  <r_i_glide_ligand_efficiency_ln>  (1) 
-0.26226491429858012

>  <r_i_glide_ligand_efficiency_sa>  (1) 
-0.11165625679244186

>  <r_i_glide_lipo>  (1) 
-3.2871470360723558

>  <r_i_glide_metal>  (1) 
-0

>  <r_i_glide_rewards>  (1) 
2.2271657221479488

>  <r_lp_Energy>  (1) 
38.466504999999998

>  <r_lp_tautomer_probability>  (1) 
1

>  <s_epik_Chemistry_Notes>  (1) 
This compound contains an acetal/aminal-like group ( X-CH(R)-Y where X, Y are N, S, or O) that may be acid/base labile, releasing an aldehyde.

>  <s_epik_cmdline>  (1) 
J2VwaWtfcHl0aG9uJywgJy1waHQnLCAnMS4wJywgJy1waCcsICc3LjQnLCAnLXRuJywgJzgnLCAnLW1hJywgJzUwMCcsICctaW1hZScsICc8aW5maWxlLm1hZT4nLCAnLW9tYWUnLCAnPG91dGZpbGUubWFlPic=

>  <s_epik_input>  (1) 
W0NIMl0xT1tDQEhdMVtDSDJdU1tDQEhdKFtDSDJdW0NIMl1bQ0gzXSlPYyhbY0hdW2NIXTIpW2NIXVtjSF1jMi1jM1tjSF1bY0hdYyhbY0hdW2NIXTMpW0NASF0oW0NIM10pTihbQ0gyXVtDSDJdW0NIMl00KVtDSDJdW0NAQF00KFtDSDNdKVtOSF1DKD1PKVtDSDNd

>  <s_glide_docking_method>  (1) 
confgen

>  <s_i_glide_gridfile>  (1) 
gpcr_drd2_6luq_protein_autoprepared_prepared

>  <s_lp_Force_Field>  (1) 
S-OPLS

>  <s_lp_Variant>  (1) 
DiffSBDD_87-2

>  <s_m_source_file>  (1) 
generated_generic_title2_ligand_DiffSBDD_2026-06-23_prepared.sdf

>  <GenAI_Model>  (1) 
DiffSBDD

>  <Protein>  (1) 
generic_title2

$$$$
DiffSBDD_2
     RDKit          3D

  0  0  0  0  0  0  0  0  0  0999 V3000
M  V30 BEGIN CTAB
M  V30 COUNTS 71 75 0 0 1
M  V30 BEGIN ATOM
M  V30 1 C 7.400168 -2.362724 -18.081320 0
M  V30 2 N 11.841843 1.255298 -19.048110 0 CFG=1 CHG=1
M  V30 3 C 14.185021 -0.368685 -17.932089 0
M  V30 4 C 13.794740 5.379696 -17.954791 0
M  V30 5 C 15.973590 1.926424 -20.530864 0
M  V30 6 C 7.645149 -5.744784 -19.915383 0 CFG=1
M  V30 7 C 15.607818 4.100779 -19.251508 0
M  V30 8 O 8.827209 1.239155 -21.113395 0
M  V30 9 C 7.660843 -4.248568 -19.636832 0
M  V30 10 C 9.926556 0.506398 -17.732382 0 CFG=2
M  V30 11 C 13.657135 2.852881 -18.231666 0
M  V30 12 C 9.525203 1.169046 -20.103849 0
M  V30 13 C 13.980109 -0.401845 -20.424565 0
M  V30 14 C 8.022940 -6.377666 -21.240745 0
M  V30 15 O 8.975169 -6.213714 -20.186308 0
M  V30 16 O 10.414810 -0.809752 -17.585416 0
M  V30 17 O 13.707175 2.725459 -17.009028 0
M  V30 18 C 7.047206 -4.716989 -17.193329 0
M  V30 19 C 6.642305 -6.088387 -17.670629 0
M  V30 20 C 15.910353 3.273840 -20.496461 0
M  V30 21 C 13.692084 6.711010 -18.711936 0
M  V30 22 F 6.505790 -7.780728 -19.224443 0
M  V30 23 C 7.975475 -1.944100 -20.411470 0
M  V30 24 C 10.959685 1.729476 -20.133111 0
M  V30 25 C 7.377939 -3.751105 -18.331281 0
M  V30 26 C 14.280530 0.502561 -19.207961 0
M  V30 27 C 14.106801 4.174149 -18.875004 0 CFG=1
M  V30 28 C 7.699699 -1.459532 -19.118682 0
M  V30 29 C 7.957147 -3.327369 -20.670188 0
M  V30 30 C 13.268236 1.701442 -19.199922 0 CFG=1
M  V30 31 C 7.727712 0.039866 -18.841834 0
M  V30 32 N 9.081523 0.612774 -18.940184 0
M  V30 33 C 6.914813 -6.543073 -18.896510 0
M  V30 34 C 15.744067 1.016303 -19.330895 0
M  V30 35 C 11.176256 1.397560 -17.739715 0
M  V30 36 H 7.185761 -1.992336 -17.089482 0
M  V30 37 H 14.887604 -1.203103 -17.975050 0
M  V30 38 H 14.412533 0.193468 -17.026402 0
M  V30 39 H 13.195850 -0.807341 -17.806774 0
M  V30 40 H 12.848146 5.224193 -17.433578 0
M  V30 41 H 14.553004 5.460218 -17.173869 0
M  V30 42 H 16.190165 1.433763 -21.468043 0
M  V30 43 H 15.992143 5.102008 -19.447307 0
M  V30 44 H 16.193855 3.740325 -18.407059 0
M  V30 45 H 9.331868 0.746007 -16.849300 0
M  V30 46 H 14.669811 -1.246424 -20.472610 0
M  V30 47 H 12.973091 -0.809971 -20.388156 0
M  V30 48 H 14.064059 0.138758 -21.367689 0
M  V30 49 H 7.759521 -7.415523 -21.433589 0
M  V30 50 H 8.206983 -5.765774 -22.118476 0
M  V30 51 H 9.680994 -1.396151 -17.449327 0
M  V30 52 H 7.903334 -4.814779 -16.524795 0
M  V30 53 H 6.215391 -4.309588 -16.615980 0
M  V30 54 H 6.110406 -6.713351 -16.968488 0
M  V30 55 H 16.078672 3.830995 -21.407489 0
M  V30 56 H 13.437741 7.523968 -18.030895 0
M  V30 57 H 14.629910 6.973998 -19.200916 0
M  V30 58 H 12.916249 6.670605 -19.477049 0
M  V30 59 H 8.202617 -1.253674 -21.209497 0
M  V30 60 H 11.400182 1.461957 -21.094725 0
M  V30 61 H 10.899835 2.818982 -20.104215 0
M  V30 62 H 13.521865 4.300916 -19.786373 0
M  V30 63 H 8.171616 -3.682428 -21.664880 0
M  V30 64 H 13.332283 2.126770 -20.201224 0
M  V30 65 H 7.323605 0.232204 -17.847034 0
M  V30 66 H 7.031594 0.533342 -19.522529 0
M  V30 67 H 16.432151 0.173780 -19.421732 0
M  V30 68 H 16.042269 1.518528 -18.415064 0
M  V30 69 H 10.904317 2.439410 -17.561176 0
M  V30 70 H 11.853244 1.091165 -16.946206 0
M  V30 71 H 11.885729 0.252484 -19.170771 0
M  V30 END ATOM
M  V30 BEGIN BOND
M  V30 1 1 9 6
M  V30 2 2 12 8
M  V30 3 1 14 6
M  V30 4 1 6 15 CFG=1
M  V30 5 1 15 14
M  V30 6 1 16 10
M  V30 7 2 17 11
M  V30 8 1 19 18
M  V30 9 2 20 5
M  V30 10 1 20 7
M  V30 11 1 21 4
M  V30 12 1 24 2
M  V30 13 1 24 12
M  V30 14 1 25 1
M  V30 15 2 25 9
M  V30 16 1 25 18
M  V30 17 1 26 3
M  V30 18 1 26 13
M  V30 19 1 27 4
M  V30 20 1 27 7
M  V30 21 1 27 11
M  V30 22 2 28 1
M  V30 23 1 28 23
M  V30 24 1 29 9
M  V30 25 2 29 23
M  V30 26 1 30 2
M  V30 27 1 30 11
M  V30 28 1 30 26
M  V30 29 1 31 28
M  V30 30 1 32 10
M  V30 31 1 32 12
M  V30 32 1 32 31
M  V30 33 1 33 6
M  V30 34 2 33 19
M  V30 35 1 33 22
M  V30 36 1 34 5
M  V30 37 1 34 26
M  V30 38 1 35 2
M  V30 39 1 35 10
M  V30 40 1 36 1
M  V30 41 1 37 3
M  V30 42 1 38 3
M  V30 43 1 39 3
M  V30 44 1 40 4
M  V30 45 1 41 4
M  V30 46 1 42 5
M  V30 47 1 43 7
M  V30 48 1 44 7
M  V30 49 1 10 45 CFG=1
M  V30 50 1 46 13
M  V30 51 1 47 13
M  V30 52 1 48 13
M  V30 53 1 49 14
M  V30 54 1 50 14
M  V30 55 1 51 16
M  V30 56 1 52 18
M  V30 57 1 53 18
M  V30 58 1 54 19
M  V30 59 1 55 20
M  V30 60 1 56 21
M  V30 61 1 57 21
M  V30 62 1 58 21
M  V30 63 1 59 23
M  V30 64 1 60 24
M  V30 65 1 61 24
M  V30 66 1 27 62 CFG=3
M  V30 67 1 63 29
M  V30 68 1 30 64 CFG=3
M  V30 69 1 65 31
M  V30 70 1 66 31
M  V30 71 1 67 34
M  V30 72 1 68 34
M  V30 73 1 69 35
M  V30 74 1 70 35
M  V30 75 1 2 71 CFG=3
M  V30 END BOND
M  V30 END CTAB
M  END
>  <i_epik_Tot_Q>  (1) 
1

>  <i_epik_Tot_abs_Q>  (1) 
1

>  <i_i_glide_confnum>  (1) 
3

>  <i_i_glide_lignum>  (1) 
6

>  <i_i_glide_posenum>  (1) 
319

>  <i_i_glide_rotatable_bonds>  (1) 
5

>  <i_lp_mmshare_version>  (1) 
72125

>  <i_m_source_file_index>  (1) 
3

>  <i_f3d_flags>  (1) 
0

>  <num_sample>  (1) 
100

>  <b_lp_Chiralities_Consistent>  (1) 
1

>  <r_epik_Charging_Adjusted_Penalty>  (1) 
2.4002963273514464

>  <r_epik_Ionization_Penalty>  (1) 
1.2026340853706476

>  <r_epik_Ionization_Penalty_Charging>  (1) 
1.2001481636757232

>  <r_epik_Ionization_Penalty_Neutral>  (1) 
0.0024859216949244217

>  <r_epik_State_Penalty>  (1) 
1.2001481636757232

>  <r_glide_ring_energy>  (1) 
0

>  <r_i_docking_score>  (1) 
-1.1334405909321101

>  <r_i_glide_ecoul>  (1) 
-2.6169314884589312

>  <r_i_glide_eff_state_penalty>  (1) 
1.2001481636757232

>  <r_i_glide_einternal>  (1) 
12.250780457865016

>  <r_i_glide_emodel>  (1) 
-24.633635601496209

>  <r_i_glide_emodel_strain>  (1) 
0.30836215964936287

>  <r_i_glide_energy>  (1) 
-26.83119210178225

>  <r_i_glide_erotb>  (1) 
0.26041846348708686

>  <r_i_glide_esite>  (1) 
0

>  <r_i_glide_evdw>  (1) 
-24.214260613323319

>  <r_i_glide_gscore>  (1) 
-2.3335887546078333

>  <r_i_glide_gscore_strain>  (1) 
0

>  <r_i_glide_hbond>  (1) 
0

>  <r_i_glide_ligand_efficiency>  (1) 
-0.032384016883774576

>  <r_i_glide_ligand_efficiency_ln>  (1) 
-0.24881536506817906

>  <r_i_glide_ligand_efficiency_sa>  (1) 
-0.10593026661709351

>  <r_i_glide_lipo>  (1) 
-0.7473326442738355

>  <r_i_glide_metal>  (1) 
-0

>  <r_i_glide_rewards>  (1) 
-0.2434218198860793

>  <r_lp_Energy>  (1) 
72.081104999999994

>  <r_lp_tautomer_probability>  (1) 
0.99995000000000001

>  <s_epik_Chemistry_Notes>  (1) 
This compound contains an acetal/aminal-like group ( X-CH(R)-Y where X, Y are N, S, or O) that may be acid/base labile, releasing an aldehyde.

>  <s_epik_cmdline>  (1) 
J2VwaWtfcHl0aG9uJywgJy1waHQnLCAnMS4wJywgJy1waCcsICc3LjQnLCAnLXRuJywgJzgnLCAnLW1hJywgJzUwMCcsICctaW1hZScsICc8aW5maWxlLm1hZT4nLCAnLW9tYWUnLCAnPG91dGZpbGUubWFlPic=

>  <s_epik_input>  (1) 
TzFbQ0gyXVtDQF0xMmMzYyhbQ0gyXVtDSF09QzJGKVtjSF1jKFtjSF1bY0hdMylbQ0gyXU4oW0NAQEhdKFtPSF0pW0NIMl00KUMoPU8pW0NIMl1ONFtDQEhdKEM1KFtDSDNdKVtDSDNdKUMoPU8pW0NAQEhdKFtDSDJdW0NIM10pW0NIMl0vW0NIXT1bQ0hdXFtDSDJdNQ==

>  <s_glide_docking_method>  (1) 
confgen

>  <s_i_glide_gridfile>  (1) 
gpcr_drd2_6luq_protein_autoprepared_prepared

>  <s_lp_Force_Field>  (1) 
S-OPLS

>  <s_lp_Variant>  (1) 
DiffSBDD_2-3

>  <s_m_source_file>  (1) 
generated_generic_title2_ligand_DiffSBDD_2026-06-23_prepared.sdf

>  <GenAI_Model>  (1) 
DiffSBDD

>  <Protein>  (1) 
generic_title2

$$$$
DiffSBDD_37
     RDKit          3D

  0  0  0  0  0  0  0  0  0  0999 V3000
M  V30 BEGIN CTAB
M  V30 COUNTS 44 46 0 0 1
M  V30 BEGIN ATOM
M  V30 1 C 10.246504 0.426552 -19.485376 0
M  V30 2 O 14.886718 0.935155 -18.857210 0
M  V30 3 C 10.251980 2.786812 -18.625258 0 CFG=1
M  V30 4 C 13.619359 2.942337 -17.456757 0
M  V30 5 C 11.074468 3.089395 -17.351642 0
M  V30 6 C 6.040608 0.303459 -16.869054 0
M  V30 7 C 9.424359 0.583895 -18.212179 0 CFG=2
M  V30 8 O 13.528805 1.590171 -17.185253 0
M  V30 9 O 16.205160 5.525309 -18.048250 0
M  V30 10 C 12.540233 5.109292 -17.822384 0
M  V30 11 C 13.803617 5.711602 -17.987157 0
M  V30 12 C 17.677956 5.590229 -15.985595 0
M  V30 13 C 7.563081 0.490678 -16.824533 0 CFG=2
M  V30 14 C 14.881642 3.552384 -17.621296 0
M  V30 15 C 12.442840 3.726995 -17.555040 0
M  V30 16 C 14.175346 0.627716 -17.900172 0
M  V30 17 C 8.474950 -1.560314 -17.728491 0
M  V30 18 C 10.940530 1.808562 -19.622561 0
M  V30 19 S 8.017000 2.268484 -16.828126 0
M  V30 20 C 16.946377 5.590232 -16.963463 0
M  V30 21 O 14.041793 -0.551210 -17.585025 0 CHG=-1
M  V30 22 N 8.191750 -0.155409 -17.993371 0
M  V30 23 C 8.962287 2.009387 -18.325323 0 CFG=1
M  V30 24 C 14.975461 4.935556 -17.884304 0
M  V30 25 H 9.598117 0.238770 -20.342180 0
M  V30 26 H 10.962285 -0.392547 -19.413495 0
M  V30 27 H 10.018844 3.729339 -19.121607 0
M  V30 28 H 10.504468 3.757294 -16.705453 0
M  V30 29 H 11.197816 2.173931 -16.785025 0
M  V30 30 H 5.764563 -0.750493 -16.833762 0
M  V30 31 H 5.615702 0.731535 -17.777381 0
M  V30 32 H 5.565892 0.790105 -16.017523 0
M  V30 33 H 10.075838 0.448925 -17.347231 0
M  V30 34 H 11.644817 5.708777 -17.895592 0
M  V30 35 H 13.874012 6.770192 -18.190399 0
M  V30 36 H 18.323725 5.590245 -15.136608 0
M  V30 37 H 7.963909 0.066019 -15.902301 0
M  V30 38 H 15.775418 2.958933 -17.543374 0
M  V30 39 H 7.554481 -2.112608 -17.537812 0
M  V30 40 H 9.131965 -1.687728 -16.866398 0
M  V30 41 H 8.957934 -2.009788 -18.594787 0
M  V30 42 H 12.010640 1.727428 -19.444692 0
M  V30 43 H 10.829856 2.169551 -20.645440 0
M  V30 44 H 8.275862 2.112734 -19.169081 0
M  V30 END ATOM
M  V30 BEGIN BOND
M  V30 1 1 5 3
M  V30 2 1 7 1
M  V30 3 1 8 4
M  V30 4 2 11 10
M  V30 5 1 13 6
M  V30 6 1 14 4
M  V30 7 2 15 4
M  V30 8 1 15 5
M  V30 9 1 15 10
M  V30 10 2 16 2
M  V30 11 1 16 8
M  V30 12 1 18 1
M  V30 13 1 18 3
M  V30 14 1 19 13
M  V30 15 1 20 9
M  V30 16 3 20 12
M  V30 17 1 21 16
M  V30 18 1 22 7
M  V30 19 1 22 13
M  V30 20 1 22 17
M  V30 21 1 23 3
M  V30 22 1 23 7
M  V30 23 1 23 19
M  V30 24 1 24 9
M  V30 25 1 24 11
M  V30 26 2 24 14
M  V30 27 1 25 1
M  V30 28 1 26 1
M  V30 29 1 3 27 CFG=3
M  V30 30 1 28 5
M  V30 31 1 29 5
M  V30 32 1 30 6
M  V30 33 1 31 6
M  V30 34 1 32 6
M  V30 35 1 7 33 CFG=1
M  V30 36 1 34 10
M  V30 37 1 35 11
M  V30 38 1 36 12
M  V30 39 1 13 37 CFG=1
M  V30 40 1 38 14
M  V30 41 1 39 17
M  V30 42 1 40 17
M  V30 43 1 41 17
M  V30 44 1 42 18
M  V30 45 1 43 18
M  V30 46 1 23 44 CFG=3
M  V30 END BOND
M  V30 END CTAB
M  END
>  <i_epik_Tot_Q>  (1) 
-1

>  <i_epik_Tot_abs_Q>  (1) 
1

>  <i_i_glide_confnum>  (1) 
5

>  <i_i_glide_lignum>  (1) 
63

>  <i_i_glide_posenum>  (1) 
188

>  <i_i_glide_rotatable_bonds>  (1) 
6

>  <i_lp_mmshare_version>  (1) 
72125

>  <i_m_source_file_index>  (1) 
38

>  <i_f3d_flags>  (1) 
0

>  <num_sample>  (1) 
100

>  <b_lp_Chiralities_Consistent>  (1) 
1

>  <r_epik_Charging_Adjusted_Penalty>  (1) 
0.031102541531961528

>  <r_epik_Ionization_Penalty>  (1) 
0.017897684908629235

>  <r_epik_Ionization_Penalty_Charging>  (1) 
0.015551270765980757

>  <r_epik_Ionization_Penalty_Neutral>  (1) 
0.0023464141426484783

>  <r_epik_State_Penalty>  (1) 
0.015551270765980773

>  <r_glide_ring_energy>  (1) 
0

>  <r_i_docking_score>  (1) 
-1.1041742049678169

>  <r_i_glide_ecoul>  (1) 
0.50615686798582138

>  <r_i_glide_eff_state_penalty>  (1) 
0.015551270765980773

>  <r_i_glide_einternal>  (1) 
0.81692548944389998

>  <r_i_glide_emodel>  (1) 
-24.501919801746951

>  <r_i_glide_emodel_strain>  (1) 
0.22628059600823747

>  <r_i_glide_energy>  (1) 
-23.375742394668656

>  <r_i_glide_erotb>  (1) 
0.79208317034527342

>  <r_i_glide_esite>  (1) 
0

>  <r_i_glide_evdw>  (1) 
-23.881899262654478

>  <r_i_glide_gscore>  (1) 
-1.1197254757337978

>  <r_i_glide_gscore_strain>  (1) 
0

>  <r_i_glide_hbond>  (1) 
0

>  <r_i_glide_ligand_efficiency>  (1) 
-0.046007258540325703

>  <r_i_glide_ligand_efficiency_ln>  (1) 
-0.26427955450154217

>  <r_i_glide_ligand_efficiency_sa>  (1) 
-0.13270789772161318

>  <r_i_glide_lipo>  (1) 
-1.0361820524669549

>  <r_i_glide_metal>  (1) 
-0

>  <r_i_glide_rewards>  (1) 
0.24254483932273474

>  <r_lp_Energy>  (1) 
41.583638999999998

>  <s_epik_Chemistry_Notes>  (1) 
This compound contains an acetal/aminal-like group ( X-CH(R)-Y where X, Y are N, S, or O) that may be acid/base labile, releasing an aldehyde. This is carbonic acid which has a microscopic pka value of about 3.8 however its equilibrium with CO2 as a lewis acid yields a pKa of about 6.35.

>  <s_epik_cmdline>  (1) 
J2VwaWtfcHl0aG9uJywgJy1waHQnLCAnMS4wJywgJy1waCcsICc3LjQnLCAnLXRuJywgJzgnLCAnLW1hJywgJzUwMCcsICctaW1hZScsICc8aW5maWxlLm1hZT4nLCAnLW9tYWUnLCAnPG91dGZpbGUubWFlPic=

>  <s_epik_input>  (1) 
W0NIM11OMVtDQEhdKFtDSDNdKVNbQ0BIXShbQ0BASF0xMilbQ0BIXShbQ0gyXVtDSDJdMilbQ0gyXWMzW2NIXVtjSF1jKE9DI1tDSF0pW2NIXWMzT0MoPU8pW09IXQ==

>  <s_glide_docking_method>  (1) 
confgen

>  <s_i_glide_gridfile>  (1) 
gpcr_drd2_6luq_protein_autoprepared_prepared

>  <s_lp_Force_Field>  (1) 
S-OPLS

>  <s_lp_Variant>  (1) 
DiffSBDD_37-1

>  <s_m_source_file>  (1) 
generated_generic_title2_ligand_DiffSBDD_2026-06-23_prepared.sdf

>  <GenAI_Model>  (1) 
DiffSBDD

>  <Protein>  (1) 
generic_title2

$$$$
DiffSBDD_86
     RDKit          3D

  0  0  0  0  0  0  0  0  0  0999 V3000
M  V30 BEGIN CTAB
M  V30 COUNTS 114 117 0 0 1
M  V30 BEGIN ATOM
M  V30 1 C 5.842452 1.247253 -20.169065 0
M  V30 2 C 5.968096 -0.252703 -19.921562 0 CFG=1
M  V30 3 C 10.929599 8.316529 -8.154036 0
M  V30 4 C 6.025546 4.236862 -10.851080 0
M  V30 5 C 12.572577 2.441069 -19.506270 0 CFG=2
M  V30 6 C 9.402684 5.557373 -13.041046 0
M  V30 7 O 10.472438 3.239583 -20.295823 0
M  V30 8 C 11.647469 4.723431 -18.814981 0 CFG=2
M  V30 9 O 9.516042 6.723040 -19.738482 0
M  V30 10 C 10.727338 4.623138 -20.045820 0 CFG=2
M  V30 11 C 13.877186 1.637191 -19.654255 0
M  V30 12 O 4.698359 -0.859003 -19.984994 0
M  V30 13 N 9.980488 6.876398 -9.991709 0
M  V30 14 C 9.721847 0.396112 -17.603429 0
M  V30 15 C 8.353718 1.630983 -20.646871 0 CFG=1
M  V30 16 C 9.690293 4.697910 -15.298291 0 CFG=2
M  V30 17 O 8.785391 0.086098 -22.917916 0
M  V30 18 C 4.901985 3.991040 -13.189699 0
M  V30 19 C 11.521568 2.326235 -20.670522 0 CFG=1
M  V30 20 C 12.015459 2.853648 -22.068416 0
M  V30 21 C 9.509060 0.713987 -20.173593 0 CFG=2
M  V30 22 O 12.603483 6.390229 -13.756665 0
M  V30 23 O 9.775284 4.563139 -12.422772 0
M  V30 24 N 11.641051 7.190246 -11.639379 0 CHG=1
M  V30 25 C 10.913615 0.884590 -20.726056 0
M  V30 26 C 12.908602 3.902071 -19.131206 0
M  V30 27 C 9.061244 7.606912 -6.504882 0
M  V30 28 O 9.090441 5.590099 -14.373004 0
M  V30 29 P 8.397624 0.036896 -21.479805 0 CFG=1
M  V30 30 C 5.936316 2.875914 -13.148623 0 CFG=2
M  V30 31 C 6.912753 -0.946925 -20.914867 0
M  V30 32 C 12.931889 2.018312 -22.985016 0
M  V30 33 C 6.134205 4.159289 -12.359780 0 CFG=2
M  V30 34 F 13.556484 6.782391 -14.773676 0
M  V30 35 C 6.603739 2.530094 -14.466404 0
M  V30 36 C 11.596913 -0.165427 -21.228060 0
M  V30 37 C 9.440275 -0.235725 -18.965824 0
M  V30 38 C 10.334232 6.991630 -11.295080 0
M  V30 39 C 7.135846 1.973254 -19.798550 0
M  V30 40 C 10.284539 5.311342 -16.607787 0 CFG=2
M  V30 41 C 9.263215 6.912224 -12.351674 0
M  V30 42 C 10.936919 6.955909 -8.870992 0
M  V30 43 C 9.361729 5.328706 -19.922005 0
M  V30 44 C 10.979729 4.237782 -17.494266 0
M  V30 45 O 11.366035 6.158604 -16.294764 0
M  V30 46 C 8.122543 2.698142 -14.497774 0
M  V30 47 C 8.556735 3.691236 -15.607834 0
M  V30 48 C 9.629102 8.685909 -7.422027 0
M  V30 49 C 12.131393 7.460383 -13.023573 0
M  V30 50 H 5.033888 1.652738 -19.557908 0
M  V30 51 H 5.571332 1.450272 -21.205884 0
M  V30 52 H 6.317476 -0.407385 -18.902380 0
M  V30 53 H 11.746449 8.325726 -7.431366 0
M  V30 54 H 11.168250 9.107492 -8.866710 0
M  V30 55 H 5.372788 3.462015 -10.449220 0
M  V30 56 H 7.013568 4.137907 -10.402348 0
M  V30 57 H 5.619747 5.204571 -10.556034 0
M  V30 58 H 12.089970 2.018801 -18.629854 0
M  V30 59 H 11.956856 5.765032 -18.706192 0
M  V30 60 H 9.969834 7.079606 -20.488001 0
M  V30 61 H 11.219656 5.078154 -20.902958 0
M  V30 62 H 14.503598 2.014178 -20.459803 0
M  V30 63 H 14.466861 1.705813 -18.740256 0
M  V30 64 H 13.701292 0.576771 -19.813226 0
M  V30 65 H 4.315731 -0.672160 -20.836790 0
M  V30 66 H 8.999948 6.750217 -9.756589 0
M  V30 67 H 9.547149 -0.336021 -16.814040 0
M  V30 68 H 10.753335 0.730183 -17.513454 0
M  V30 69 H 9.062409 1.235323 -17.417525 0
M  V30 70 H 8.565177 2.407303 -21.376879 0
M  V30 71 H 10.572735 4.361525 -14.787370 0
M  V30 72 H 4.865975 4.685316 -14.022935 0
M  V30 73 H 3.932132 3.737734 -12.784352 0
M  V30 74 H 11.133393 3.100679 -22.660223 0
M  V30 75 H 12.547435 3.792221 -21.934211 0
M  V30 76 H 13.574894 3.921498 -18.269305 0
M  V30 77 H 13.466632 4.378715 -19.936307 0
M  V30 78 H 8.192278 8.008827 -5.987395 0
M  V30 79 H 8.730011 6.734497 -7.067611 0
M  V30 80 H 9.784767 7.289178 -5.756235 0
M  V30 81 H 5.775926 2.006262 -12.515929 0
M  V30 82 H 7.243310 -1.907293 -20.519374 0
M  V30 83 H 6.360243 -1.175654 -21.827785 0
M  V30 84 H 13.822002 1.639619 -22.485744 0
M  V30 85 H 12.399846 1.182371 -23.437299 0
M  V30 86 H 13.284722 2.632601 -23.813998 0
M  V30 87 H 6.841377 4.868503 -12.769453 0
M  V30 88 H 6.175950 3.164891 -15.225942 0
M  V30 89 H 6.333200 1.512559 -14.750597 0
M  V30 90 H 11.156614 -1.150106 -21.253439 0
M  V30 91 H 12.595685 -0.057120 -21.613683 0
M  V30 92 H 8.467368 -0.703602 -18.891829 0
M  V30 93 H 10.133619 -1.061385 -19.110252 0
M  V30 94 H 7.366072 1.799724 -18.749612 0
M  V30 95 H 6.972900 3.047510 -19.877849 0
M  V30 96 H 9.527812 5.871224 -17.151126 0
M  V30 97 H 9.289711 7.772864 -13.012117 0
M  V30 98 H 8.285306 6.935240 -11.869737 0
M  V30 99 H 10.738890 6.146565 -8.169519 0
M  V30 100 H 11.944217 6.789821 -9.240609 0
M  V30 101 H 8.766918 4.915643 -19.108758 0
M  V30 102 H 8.782766 5.163967 -20.832442 0
M  V30 103 H 10.299360 3.435507 -17.762825 0
M  V30 104 H 11.738311 3.763042 -16.867134 0
M  V30 105 H 11.020805 6.989052 -16.004886 0
M  V30 106 H 8.574336 1.721598 -14.679794 0
M  V30 107 H 8.471951 2.966877 -13.509451 0
M  V30 108 H 7.725137 4.317814 -15.928557 0
M  V30 109 H 8.751827 3.097046 -16.485852 0
M  V30 110 H 9.838682 9.544907 -6.787496 0
M  V30 111 H 8.865502 8.998009 -8.137712 0
M  V30 112 H 11.378280 7.989804 -13.584981 0
M  V30 113 H 12.995988 8.116144 -12.933266 0
M  V30 114 H 12.329178 7.225732 -10.903121 0
M  V30 END ATOM
M  V30 BEGIN BOND
M  V30 1 1 2 1
M  V30 2 1 10 7
M  V30 3 1 10 8
M  V30 4 1 11 5
M  V30 5 1 12 2
M  V30 6 1 19 5
M  V30 7 1 19 7
M  V30 8 1 19 20 CFG=3
M  V30 9 1 21 15
M  V30 10 2 23 6
M  V30 11 1 25 19
M  V30 12 1 25 21
M  V30 13 1 26 5
M  V30 14 1 26 8
M  V30 15 1 28 6
M  V30 16 1 28 16
M  V30 17 1 29 15
M  V30 18 2 29 17
M  V30 19 1 29 21
M  V30 20 1 30 18
M  V30 21 1 31 2
M  V30 22 1 29 31 CFG=1
M  V30 23 1 32 20
M  V30 24 1 33 4
M  V30 25 1 33 18
M  V30 26 1 33 30
M  V30 27 1 34 22
M  V30 28 1 35 30
M  V30 29 2 36 25
M  V30 30 1 37 14
M  V30 31 1 21 37 CFG=1
M  V30 32 1 38 13
M  V30 33 2 38 24
M  V30 34 1 39 1
M  V30 35 1 39 15
M  V30 36 1 40 16
M  V30 37 1 41 6
M  V30 38 1 41 38
M  V30 39 1 42 3
M  V30 40 1 42 13
M  V30 41 1 43 9
M  V30 42 1 43 10
M  V30 43 1 44 8
M  V30 44 1 44 40
M  V30 45 1 45 40
M  V30 46 1 46 35
M  V30 47 1 47 16
M  V30 48 1 47 46
M  V30 49 1 48 3
M  V30 50 1 48 27
M  V30 51 1 49 22
M  V30 52 1 49 24
M  V30 53 1 50 1
M  V30 54 1 51 1
M  V30 55 1 2 52 CFG=1
M  V30 56 1 53 3
M  V30 57 1 54 3
M  V30 58 1 55 4
M  V30 59 1 56 4
M  V30 60 1 57 4
M  V30 61 1 5 58 CFG=1
M  V30 62 1 8 59 CFG=1
M  V30 63 1 60 9
M  V30 64 1 10 61 CFG=3
M  V30 65 1 62 11
M  V30 66 1 63 11
M  V30 67 1 64 11
M  V30 68 1 65 12
M  V30 69 1 66 13
M  V30 70 1 67 14
M  V30 71 1 68 14
M  V30 72 1 69 14
M  V30 73 1 15 70 CFG=3
M  V30 74 1 16 71 CFG=1
M  V30 75 1 72 18
M  V30 76 1 73 18
M  V30 77 1 74 20
M  V30 78 1 75 20
M  V30 79 1 76 26
M  V30 80 1 77 26
M  V30 81 1 78 27
M  V30 82 1 79 27
M  V30 83 1 80 27
M  V30 84 1 30 81 CFG=1
M  V30 85 1 82 31
M  V30 86 1 83 31
M  V30 87 1 84 32
M  V30 88 1 85 32
M  V30 89 1 86 32
M  V30 90 1 33 87 CFG=3
M  V30 91 1 88 35
M  V30 92 1 89 35
M  V30 93 1 90 36
M  V30 94 1 91 36
M  V30 95 1 92 37
M  V30 96 1 93 37
M  V30 97 1 94 39
M  V30 98 1 95 39
M  V30 99 1 40 96 CFG=3
M  V30 100 1 97 41
M  V30 101 1 98 41
M  V30 102 1 99 42
M  V30 103 1 100 42
M  V30 104 1 101 43
M  V30 105 1 102 43
M  V30 106 1 103 44
M  V30 107 1 104 44
M  V30 108 1 105 45
M  V30 109 1 106 46
M  V30 110 1 107 46
M  V30 111 1 108 47
M  V30 112 1 109 47
M  V30 113 1 110 48
M  V30 114 1 111 48
M  V30 115 1 112 49
M  V30 116 1 113 49
M  V30 117 1 114 24
M  V30 END BOND
M  V30 END CTAB
M  END
>  <i_epik_Tot_Q>  (1) 
1

>  <i_epik_Tot_abs_Q>  (1) 
1

>  <i_i_glide_confnum>  (1) 
15639

>  <i_i_glide_lignum>  (1) 
154

>  <i_i_glide_posenum>  (1) 
139

>  <i_i_glide_rotatable_bonds>  (1) 
25

>  <i_lp_mmshare_version>  (1) 
72125

>  <i_m_source_file_index>  (1) 
87

>  <i_f3d_flags>  (1) 
0

>  <num_sample>  (1) 
100

>  <b_lp_Chiralities_Consistent>  (1) 
1

>  <r_epik_Charging_Adjusted_Penalty>  (1) 
0.16001273794586685

>  <r_epik_Ionization_Penalty>  (1) 
0.080843455150849161

>  <r_epik_Ionization_Penalty_Charging>  (1) 
0.080842825825004877

>  <r_epik_Ionization_Penalty_Neutral>  (1) 
6.2932584428919515e-07

>  <r_epik_State_Penalty>  (1) 
0.079169912120861954

>  <r_glide_ring_energy>  (1) 
0

>  <r_i_docking_score>  (1) 
-0.92169738180867133

>  <r_i_glide_ecoul>  (1) 
-2.29933319067927

>  <r_i_glide_eff_state_penalty>  (1) 
0.079169912120861954

>  <r_i_glide_einternal>  (1) 
30.85809391651172

>  <r_i_glide_emodel>  (1) 
15.060746692821567

>  <r_i_glide_emodel_strain>  (1) 
7.3712064865528504

>  <r_i_glide_energy>  (1) 
-5.5348759088639339

>  <r_i_glide_erotb>  (1) 
0.57386026422142977

>  <r_i_glide_esite>  (1) 
-0.1064482976155145

>  <r_i_glide_evdw>  (1) 
-3.2355427181846639

>  <r_i_glide_gscore>  (1) 
-1.0008672939295333

>  <r_i_glide_gscore_strain>  (1) 
0.84280162163821259

>  <r_i_glide_hbond>  (1) 
-0.34951074820507388

>  <r_i_glide_ligand_efficiency>  (1) 
-0.01881015064915656

>  <r_i_glide_ligand_efficiency_ln>  (1) 
-0.18841603444931523

>  <r_i_glide_ligand_efficiency_sa>  (1) 
-0.068832091676850907

>  <r_i_glide_lipo>  (1) 
-1.1408252411020157

>  <r_i_glide_metal>  (1) 
-0

>  <r_i_glide_rewards>  (1) 
-0.31406777835544791

>  <r_lp_Energy>  (1) 
45.628945999999999

>  <s_epik_Chemistry_Notes>  (1) 
This compound has an ester and may undergo hydrolysis at high or low pH. This compound has an imine and may undergo hydrolysis. This compound contains an acetal/aminal-like group ( X-CH(R)-Y where X, Y are N, S, or O) that may be acid/base labile, releasing an aldehyde.

>  <s_epik_cmdline>  (1) 
J2VwaWtfcHl0aG9uJywgJy1waHQnLCAnMS4wJywgJy1waCcsICc3LjQnLCAnLXRuJywgJzgnLCAnLW1hJywgJzUwMCcsICctaW1hZScsICc8aW5maWxlLm1hZT4nLCAnLW9tYWUnLCAnPG91dGZpbGUubWFlPic=

>  <s_epik_input>  (1) 
W09IXVtDQEBIXShbQ0gyXTEpW0NIMl1bQ0gyXVtDQEhdKFAxMj1PKVtDQEBdMihbQ0gyXVtDSDNdKUMoPVtDSDJdKVtDQF0zKFtDSDJdW0NIM10pW0NAQEhdKFtDSDNdKVtDSDJdW0NAQEhdKFtDQEBIXShPMylbQ0gyXVtPSF0pW0NIMl1bQ0BIXShbT0hdKVtDQEhdKFtDSDJdW0NIMl1bQ0gyXVtDQEBIXTRbQ0gyXVtDQEhdNFtDSDNdKU9DKD1PKVtDSDJdQyg9TlxbQ0gyXU9GKS9bTkhdW0NIMl1bQ0gyXVtDSDJdW0NIM10=

>  <s_glide_docking_method>  (1) 
confgen

>  <s_i_glide_gridfile>  (1) 
gpcr_drd2_6luq_protein_autoprepared_prepared

>  <s_lp_Force_Field>  (1) 
S-OPLS

>  <s_lp_Variant>  (1) 
DiffSBDD_86-2

>  <s_m_source_file>  (1) 
generated_generic_title2_ligand_DiffSBDD_2026-06-23_prepared.sdf

>  <GenAI_Model>  (1) 
DiffSBDD

>  <Protein>  (1) 
generic_title2

$$$$
DiffSBDD_37
     RDKit          3D

  0  0  0  0  0  0  0  0  0  0999 V3000
M  V30 BEGIN CTAB
M  V30 COUNTS 44 46 0 0 1
M  V30 BEGIN ATOM
M  V30 1 C 6.727411 4.789954 -10.160256 0
M  V30 2 O 13.375412 8.581003 -11.155200 0
M  V30 3 C 9.171004 5.202460 -9.710081 0 CFG=1
M  V30 4 C 11.283864 8.228683 -8.379989 0
M  V30 5 C 9.742780 6.642201 -9.640059 0
M  V30 6 C 8.358771 4.519731 -14.809234 0
M  V30 7 C 7.451001 5.308859 -11.379648 0 CFG=2
M  V30 8 O 11.768679 8.650109 -9.599332 0
M  V30 9 O 11.682520 9.004012 -4.779288 0
M  V30 10 C 9.794048 6.790295 -7.083419 0
M  V30 11 C 10.269294 7.372822 -5.893259 0
M  V30 12 C 12.575392 7.591270 -2.871185 0
M  V30 13 C 8.178266 5.397341 -13.565413 0 CFG=2
M  V30 14 C 11.757921 8.812613 -7.181652 0
M  V30 15 C 10.289290 7.224708 -8.332143 0
M  V30 16 C 13.040757 8.390229 -9.987833 0
M  V30 17 C 5.795023 5.348438 -13.108881 0
M  V30 18 C 7.776553 5.010589 -9.044466 0
M  V30 19 S 9.712492 5.477424 -12.568820 0
M  V30 20 C 12.175435 8.253752 -3.816327 0
M  V30 21 O 13.861496 7.987889 -9.181699 0 CHG=-1
M  V30 22 N 7.106407 4.851345 -12.714944 0
M  V30 23 C 8.844189 4.792677 -11.161083 0 CFG=1
M  V30 24 C 11.245977 8.394465 -5.939310 0
M  V30 25 H 6.473117 3.735813 -10.261865 0
M  V30 26 H 5.809402 5.349718 -9.985067 0
M  V30 27 H 9.894422 4.508289 -9.284507 0
M  V30 28 H 10.573274 6.682032 -10.338964 0
M  V30 29 H 9.009596 7.350905 -10.023768 0
M  V30 30 H 7.461981 4.515574 -15.428507 0
M  V30 31 H 8.575409 3.488855 -14.531109 0
M  V30 32 H 9.184001 4.879850 -15.424019 0
M  V30 33 H 7.438036 6.401211 -11.352350 0
M  V30 34 H 9.041893 6.023133 -7.033170 0
M  V30 35 H 9.874463 7.045302 -4.944287 0
M  V30 36 H 12.914642 7.000498 -2.050625 0
M  V30 37 H 7.944334 6.422699 -13.856600 0
M  V30 38 H 12.504005 9.589819 -7.218323 0
M  V30 39 H 5.557834 5.049324 -14.129717 0
M  V30 40 H 5.738273 6.436313 -13.044542 0
M  V30 41 H 5.029323 4.929280 -12.456806 0
M  V30 42 H 7.514432 5.894573 -8.476625 0
M  V30 43 H 7.774283 4.181184 -8.337900 0
M  V30 44 H 8.865918 3.703582 -11.246584 0
M  V30 END ATOM
M  V30 BEGIN BOND
M  V30 1 1 5 3
M  V30 2 1 7 1
M  V30 3 1 8 4
M  V30 4 2 11 10
M  V30 5 1 13 6
M  V30 6 1 14 4
M  V30 7 2 15 4
M  V30 8 1 15 5
M  V30 9 1 15 10
M  V30 10 2 16 2
M  V30 11 1 16 8
M  V30 12 1 18 1
M  V30 13 1 18 3
M  V30 14 1 19 13
M  V30 15 1 20 9
M  V30 16 3 20 12
M  V30 17 1 21 16
M  V30 18 1 22 7
M  V30 19 1 22 13
M  V30 20 1 22 17
M  V30 21 1 23 3
M  V30 22 1 23 7
M  V30 23 1 23 19
M  V30 24 1 24 9
M  V30 25 1 24 11
M  V30 26 2 24 14
M  V30 27 1 25 1
M  V30 28 1 26 1
M  V30 29 1 3 27 CFG=1
M  V30 30 1 28 5
M  V30 31 1 29 5
M  V30 32 1 30 6
M  V30 33 1 31 6
M  V30 34 1 32 6
M  V30 35 1 7 33 CFG=3
M  V30 36 1 34 10
M  V30 37 1 35 11
M  V30 38 1 36 12
M  V30 39 1 13 37 CFG=3
M  V30 40 1 38 14
M  V30 41 1 39 17
M  V30 42 1 40 17
M  V30 43 1 41 17
M  V30 44 1 42 18
M  V30 45 1 43 18
M  V30 46 1 23 44 CFG=1
M  V30 END BOND
M  V30 END CTAB
M  END
>  <i_epik_Tot_Q>  (1) 
-1

>  <i_epik_Tot_abs_Q>  (1) 
1

>  <i_i_glide_confnum>  (1) 
21

>  <i_i_glide_lignum>  (1) 
63

>  <i_i_glide_posenum>  (1) 
226

>  <i_i_glide_rotatable_bonds>  (1) 
6

>  <i_lp_mmshare_version>  (1) 
72125

>  <i_m_source_file_index>  (1) 
38

>  <i_f3d_flags>  (1) 
0

>  <num_sample>  (1) 
100

>  <b_lp_Chiralities_Consistent>  (1) 
1

>  <r_epik_Charging_Adjusted_Penalty>  (1) 
0.031102541531961528

>  <r_epik_Ionization_Penalty>  (1) 
0.017897684908629235

>  <r_epik_Ionization_Penalty_Charging>  (1) 
0.015551270765980757

>  <r_epik_Ionization_Penalty_Neutral>  (1) 
0.0023464141426484783

>  <r_epik_State_Penalty>  (1) 
0.015551270765980773

>  <r_glide_ring_energy>  (1) 
0

>  <r_i_docking_score>  (1) 
-0.64926213306709391

>  <r_i_glide_ecoul>  (1) 
-1.6586763727070157

>  <r_i_glide_eff_state_penalty>  (1) 
0.015551270765980773

>  <r_i_glide_einternal>  (1) 
6.8554433772566892

>  <r_i_glide_emodel>  (1) 
-30.016034303094578

>  <r_i_glide_emodel_strain>  (1) 
1.3371370508150804

>  <r_i_glide_energy>  (1) 
-33.73538345862535

>  <r_i_glide_erotb>  (1) 
0.79208317034527342

>  <r_i_glide_esite>  (1) 
-0.028361995373810574

>  <r_i_glide_evdw>  (1) 
-32.076707085918336

>  <r_i_glide_gscore>  (1) 
-0.66481340383307463

>  <r_i_glide_gscore_strain>  (1) 
0

>  <r_i_glide_hbond>  (1) 
0

>  <r_i_glide_ligand_efficiency>  (1) 
-0.027052588877795578

>  <r_i_glide_ligand_efficiency_ln>  (1) 
-0.15539822114092383

>  <r_i_glide_ligand_efficiency_sa>  (1) 
-0.078033169369407296

>  <r_i_glide_lipo>  (1) 
-2.0031099925772695

>  <r_i_glide_metal>  (1) 
-0

>  <r_i_glide_rewards>  (1) 
2.4272122239747009

>  <r_lp_Energy>  (1) 
41.583638999999998

>  <s_epik_Chemistry_Notes>  (1) 
This compound contains an acetal/aminal-like group ( X-CH(R)-Y where X, Y are N, S, or O) that may be acid/base labile, releasing an aldehyde. This is carbonic acid which has a microscopic pka value of about 3.8 however its equilibrium with CO2 as a lewis acid yields a pKa of about 6.35.

>  <s_epik_cmdline>  (1) 
J2VwaWtfcHl0aG9uJywgJy1waHQnLCAnMS4wJywgJy1waCcsICc3LjQnLCAnLXRuJywgJzgnLCAnLW1hJywgJzUwMCcsICctaW1hZScsICc8aW5maWxlLm1hZT4nLCAnLW9tYWUnLCAnPG91dGZpbGUubWFlPic=

>  <s_epik_input>  (1) 
W0NIM11OMVtDQEhdKFtDSDNdKVNbQ0BIXShbQ0BASF0xMilbQ0BIXShbQ0gyXVtDSDJdMilbQ0gyXWMzW2NIXVtjSF1jKE9DI1tDSF0pW2NIXWMzT0MoPU8pW09IXQ==

>  <s_glide_docking_method>  (1) 
confgen

>  <s_i_glide_gridfile>  (1) 
gpcr_drd2_6luq_protein_autoprepared_prepared

>  <s_lp_Force_Field>  (1) 
S-OPLS

>  <s_lp_Variant>  (1) 
DiffSBDD_37-1

>  <s_m_source_file>  (1) 
generated_generic_title2_ligand_DiffSBDD_2026-06-23_prepared.sdf

>  <GenAI_Model>  (1) 
DiffSBDD

>  <Protein>  (1) 
generic_title2

$$$$
DiffSBDD_86
     RDKit          3D

  0  0  0  0  0  0  0  0  0  0999 V3000
M  V30 BEGIN CTAB
M  V30 COUNTS 113 116 0 0 1
M  V30 BEGIN ATOM
M  V30 1 C 12.231287 1.212504 -23.072057 0
M  V30 2 C 12.869911 0.106259 -22.235479 0 CFG=1
M  V30 3 C 5.510482 -0.009725 -13.052135 0
M  V30 4 C 7.360842 7.930755 -22.765726 0
M  V30 5 C 13.557070 5.688459 -18.522880 0 CFG=2
M  V30 6 C 7.771939 3.474368 -16.851275 0
M  V30 7 O 13.337975 5.899301 -20.916221 0
M  V30 8 C 11.622369 6.988072 -19.566311 0 CFG=2
M  V30 9 O 10.908048 8.283948 -22.234370 0
M  V30 10 C 12.481845 7.047411 -20.851164 0 CFG=2
M  V30 11 C 14.460554 5.576749 -17.278874 0
M  V30 12 O 12.760824 -1.126067 -22.918535 0
M  V30 13 N 6.677287 1.834584 -14.079094 0
M  V30 14 C 12.260037 1.980231 -19.023751 0
M  V30 15 C 13.384160 3.216459 -21.869960 0 CFG=1
M  V30 16 C 8.309349 5.168452 -18.442559 0 CFG=2
M  V30 17 O 16.009700 2.685021 -22.624710 0
M  V30 18 C 5.921476 5.739780 -23.010877 0
M  V30 19 C 14.321379 5.694872 -19.885950 0 CFG=1
M  V30 20 C 15.340810 6.880632 -19.969770 0
M  V30 21 C 14.079276 3.164002 -20.482408 0 CFG=2
M  V30 22 O 6.084572 4.156026 -11.657090 0
M  V30 23 O 7.371685 2.620802 -17.642101 0
M  V30 24 N 6.601053 4.266409 -13.981605 0
M  V30 25 C 14.996219 4.301566 -20.079258 0
M  V30 26 C 12.589558 6.876999 -18.372184 0
M  V30 27 C 5.753046 -0.178169 -10.542566 0
M  V30 28 O 7.933035 4.770349 -17.131412 0
M  V30 29 P 14.847198 2.175406 -21.843454 0 CFG=1
M  V30 30 C 5.734998 6.230406 -21.595498 0 CFG=2
M  V30 31 C 14.345557 0.379952 -21.918471 0
M  V30 32 C 15.974601 7.081003 -21.357765 0
M  V30 33 C 7.024890 6.520191 -22.330836 0 CFG=2
M  V30 34 F 7.256995 4.911229 -11.274053 0
M  V30 35 C 5.679661 5.249486 -20.439111 0
M  V30 36 C 16.322217 4.111063 -19.893000 0
M  V30 37 C 13.745393 2.224742 -19.306563 0
M  V30 38 C 7.063852 3.130907 -14.421981 0
M  V30 39 C 12.087401 2.534885 -22.306312 0
M  V30 40 C 9.799812 5.571203 -18.307336 0 CFG=2
M  V30 41 C 8.175440 3.128093 -15.429042 0
M  V30 42 C 5.593455 1.505888 -13.188635 0
M  V30 43 C 11.690063 7.108979 -22.170623 0
M  V30 44 C 10.512333 5.902318 -19.638867 0
M  V30 45 O 10.531077 4.510821 -17.726598 0
M  V30 46 C 5.913913 5.917405 -19.074176 0
M  V30 47 C 7.372999 6.341438 -18.814053 0
M  V30 48 C 6.372728 -0.527433 -11.900632 0
M  V30 49 C 5.599300 4.462192 -12.951854 0
M  V30 50 H 11.239025 0.894435 -23.394177 0
M  V30 51 H 12.810417 1.370312 -23.980415 0
M  V30 52 H 12.309696 -0.010268 -21.312264 0
M  V30 53 H 4.482874 -0.328577 -12.889764 0
M  V30 54 H 5.802567 -0.476283 -13.993056 0
M  V30 55 H 6.466522 8.460704 -23.094796 0
M  V30 56 H 7.805576 8.483758 -21.938502 0
M  V30 57 H 8.072774 7.909888 -23.591060 0
M  V30 58 H 12.938241 4.795553 -18.521779 0
M  V30 59 H 11.108842 7.944617 -19.458905 0
M  V30 60 H 10.261197 8.257328 -21.547170 0
M  V30 61 H 13.081271 7.956041 -20.827439 0
M  V30 62 H 15.092493 6.455994 -17.158165 0
M  V30 63 H 13.857235 5.483734 -16.374926 0
M  V30 64 H 15.105152 4.699495 -17.320218 0
M  V30 65 H 13.125159 -1.808900 -22.376522 0
M  V30 66 H 7.131376 1.029572 -14.487843 0
M  V30 67 H 12.103842 1.702308 -17.980789 0
M  V30 68 H 11.675964 2.874554 -19.217755 0
M  V30 69 H 11.846268 1.177423 -19.624183 0
M  V30 70 H 13.575577 4.100460 -22.472710 0
M  V30 71 H 8.207182 4.363882 -19.172390 0
M  V30 72 H 6.084933 4.674770 -23.164246 0
M  V30 73 H 5.352169 6.237893 -23.793181 0
M  V30 74 H 14.872064 7.820486 -19.689285 0
M  V30 75 H 16.125993 6.778595 -19.223741 0
M  V30 76 H 12.047544 6.798313 -17.431584 0
M  V30 77 H 13.151757 7.806299 -18.281857 0
M  V30 78 H 6.175407 -0.730880 -9.706793 0
M  V30 79 H 5.775415 0.885326 -10.329916 0
M  V30 80 H 4.696250 -0.409784 -10.559897 0
M  V30 81 H 5.048934 7.068111 -21.483863 0
M  V30 82 H 14.659033 -0.147815 -21.018235 0
M  V30 83 H 14.957811 -0.030517 -22.722546 0
M  V30 84 H 16.665338 7.924134 -21.346405 0
M  V30 85 H 16.529569 6.203781 -21.687778 0
M  V30 86 H 15.215816 7.291706 -22.111565 0
M  V30 87 H 7.895405 5.939025 -22.033461 0
M  V30 88 H 6.395922 4.444060 -20.603423 0
M  V30 89 H 4.692730 4.786030 -20.444794 0
M  V30 90 H 16.767878 3.137458 -20.028474 0
M  V30 91 H 16.972923 4.918122 -19.604406 0
M  V30 92 H 14.274131 1.278720 -19.386825 0
M  V30 93 H 14.158430 2.672123 -18.401916 0
M  V30 94 H 11.423666 2.413400 -21.456168 0
M  V30 95 H 11.564356 3.238398 -22.955893 0
M  V30 96 H 9.856692 6.390261 -17.604318 0
M  V30 97 H 8.601256 2.126705 -15.467986 0
M  V30 98 H 8.958018 3.812888 -15.100926 0
M  V30 99 H 5.775395 1.945977 -12.215273 0
M  V30 100 H 4.648484 1.869829 -13.585023 0
M  V30 101 H 11.060136 6.230758 -22.312666 0
M  V30 102 H 12.388480 7.122598 -23.007705 0
M  V30 103 H 9.767642 6.245021 -20.354677 0
M  V30 104 H 10.911079 4.987718 -20.080734 0
M  V30 105 H 10.201477 4.375468 -16.851223 0
M  V30 106 H 5.581958 5.244118 -18.283372 0
M  V30 107 H 5.267005 6.792319 -18.996394 0
M  V30 108 H 7.375358 7.061113 -17.996065 0
M  V30 109 H 7.749410 6.887590 -19.676654 0
M  V30 110 H 6.467602 -1.609899 -11.977449 0
M  V30 111 H 7.379510 -0.122539 -11.985037 0
M  V30 112 H 5.331302 5.518880 -12.940057 0
M  V30 113 H 4.668009 3.942825 -13.170017 0
M  V30 END ATOM
M  V30 BEGIN BOND
M  V30 1 1 2 1
M  V30 2 1 10 7
M  V30 3 1 10 8
M  V30 4 1 11 5
M  V30 5 1 12 2
M  V30 6 1 19 5
M  V30 7 1 19 7
M  V30 8 1 19 20 CFG=1
M  V30 9 1 21 15
M  V30 10 2 23 6
M  V30 11 1 25 19
M  V30 12 1 25 21
M  V30 13 1 26 5
M  V30 14 1 26 8
M  V30 15 1 28 6
M  V30 16 1 28 16
M  V30 17 1 29 15
M  V30 18 2 29 17
M  V30 19 1 29 21
M  V30 20 1 30 18
M  V30 21 1 31 2
M  V30 22 1 29 31 CFG=1
M  V30 23 1 32 20
M  V30 24 1 33 4
M  V30 25 1 33 18
M  V30 26 1 33 30
M  V30 27 1 34 22
M  V30 28 1 35 30
M  V30 29 2 36 25
M  V30 30 1 37 14
M  V30 31 1 21 37 CFG=1
M  V30 32 1 38 13
M  V30 33 2 38 24
M  V30 34 1 39 1
M  V30 35 1 39 15
M  V30 36 1 40 16
M  V30 37 1 41 6
M  V30 38 1 41 38
M  V30 39 1 42 3
M  V30 40 1 42 13
M  V30 41 1 43 9
M  V30 42 1 43 10
M  V30 43 1 44 8
M  V30 44 1 44 40
M  V30 45 1 45 40
M  V30 46 1 46 35
M  V30 47 1 47 16
M  V30 48 1 47 46
M  V30 49 1 48 3
M  V30 50 1 48 27
M  V30 51 1 49 22
M  V30 52 1 49 24
M  V30 53 1 50 1
M  V30 54 1 51 1
M  V30 55 1 2 52 CFG=1
M  V30 56 1 53 3
M  V30 57 1 54 3
M  V30 58 1 55 4
M  V30 59 1 56 4
M  V30 60 1 57 4
M  V30 61 1 5 58 CFG=3
M  V30 62 1 8 59 CFG=1
M  V30 63 1 60 9
M  V30 64 1 10 61 CFG=1
M  V30 65 1 62 11
M  V30 66 1 63 11
M  V30 67 1 64 11
M  V30 68 1 65 12
M  V30 69 1 66 13
M  V30 70 1 67 14
M  V30 71 1 68 14
M  V30 72 1 69 14
M  V30 73 1 15 70 CFG=3
M  V30 74 1 16 71 CFG=3
M  V30 75 1 72 18
M  V30 76 1 73 18
M  V30 77 1 74 20
M  V30 78 1 75 20
M  V30 79 1 76 26
M  V30 80 1 77 26
M  V30 81 1 78 27
M  V30 82 1 79 27
M  V30 83 1 80 27
M  V30 84 1 30 81 CFG=3
M  V30 85 1 82 31
M  V30 86 1 83 31
M  V30 87 1 84 32
M  V30 88 1 85 32
M  V30 89 1 86 32
M  V30 90 1 33 87 CFG=1
M  V30 91 1 88 35
M  V30 92 1 89 35
M  V30 93 1 90 36
M  V30 94 1 91 36
M  V30 95 1 92 37
M  V30 96 1 93 37
M  V30 97 1 94 39
M  V30 98 1 95 39
M  V30 99 1 40 96 CFG=1
M  V30 100 1 97 41
M  V30 101 1 98 41
M  V30 102 1 99 42
M  V30 103 1 100 42
M  V30 104 1 101 43
M  V30 105 1 102 43
M  V30 106 1 103 44
M  V30 107 1 104 44
M  V30 108 1 105 45
M  V30 109 1 106 46
M  V30 110 1 107 46
M  V30 111 1 108 47
M  V30 112 1 109 47
M  V30 113 1 110 48
M  V30 114 1 111 48
M  V30 115 1 112 49
M  V30 116 1 113 49
M  V30 END BOND
M  V30 END CTAB
M  END
>  <i_epik_Tot_Q>  (1) 
0

>  <i_epik_Tot_abs_Q>  (1) 
0

>  <i_i_glide_confnum>  (1) 
11316

>  <i_i_glide_lignum>  (1) 
155

>  <i_i_glide_posenum>  (1) 
212

>  <i_i_glide_rotatable_bonds>  (1) 
25

>  <i_lp_mmshare_version>  (1) 
72125

>  <i_m_source_file_index>  (1) 
87

>  <i_f3d_flags>  (1) 
0

>  <num_sample>  (1) 
100

>  <b_lp_Chiralities_Consistent>  (1) 
1

>  <r_epik_Charging_Adjusted_Penalty>  (1) 
1.2316584192148512

>  <r_epik_Ionization_Penalty>  (1) 
1.2316590375040075

>  <r_epik_Ionization_Penalty_Charging>  (1) 
0

>  <r_epik_Ionization_Penalty_Neutral>  (1) 
1.2316590375040075

>  <r_epik_State_Penalty>  (1) 
1.2316584192148512

>  <r_glide_ring_energy>  (1) 
0

>  <r_i_docking_score>  (1) 
-0.5684464642133995

>  <r_i_glide_ecoul>  (1) 
1.434335052177772

>  <r_i_glide_eff_state_penalty>  (1) 
1.2316584192148512

>  <r_i_glide_einternal>  (1) 
17.525643858181397

>  <r_i_glide_emodel>  (1) 
-20.703773032210641

>  <r_i_glide_emodel_strain>  (1) 
2.4145681829185435

>  <r_i_glide_energy>  (1) 
-27.937616765560918

>  <r_i_glide_erotb>  (1) 
0.57622798544967491

>  <r_i_glide_esite>  (1) 
-0.042811137287234936

>  <r_i_glide_evdw>  (1) 
-29.37195181773869

>  <r_i_glide_gscore>  (1) 
-1.8001048834282507

>  <r_i_glide_gscore_strain>  (1) 
0

>  <r_i_glide_hbond>  (1) 
0

>  <r_i_glide_ligand_efficiency>  (1) 
-0.01160094824925305

>  <r_i_glide_ligand_efficiency_ln>  (1) 
-0.11620346406284614

>  <r_i_glide_ligand_efficiency_sa>  (1) 
-0.042451416170172687

>  <r_i_glide_lipo>  (1) 
-0.9488850566062329

>  <r_i_glide_metal>  (1) 
-0

>  <r_i_glide_rewards>  (1) 
-0.13118934192418913

>  <r_lp_Energy>  (1) 
45.821346999999996

>  <s_epik_Chemistry_Notes>  (1) 
This compound has an ester and may undergo hydrolysis at high or low pH. This compound has an imine and may undergo hydrolysis. This compound contains an acetal/aminal-like group ( X-CH(R)-Y where X, Y are N, S, or O) that may be acid/base labile, releasing an aldehyde.

>  <s_epik_cmdline>  (1) 
J2VwaWtfcHl0aG9uJywgJy1waHQnLCAnMS4wJywgJy1waCcsICc3LjQnLCAnLXRuJywgJzgnLCAnLW1hJywgJzUwMCcsICctaW1hZScsICc8aW5maWxlLm1hZT4nLCAnLW9tYWUnLCAnPG91dGZpbGUubWFlPic=

>  <s_epik_input>  (1) 
W09IXVtDQEBIXShbQ0gyXTEpW0NIMl1bQ0gyXVtDQEhdKFAxMj1PKVtDQEBdMihbQ0gyXVtDSDNdKUMoPVtDSDJdKVtDQF0zKFtDSDJdW0NIM10pW0NAQEhdKFtDSDNdKVtDSDJdW0NAQEhdKFtDQEBIXShPMylbQ0gyXVtPSF0pW0NIMl1bQ0BIXShbT0hdKVtDQEhdKFtDSDJdW0NIMl1bQ0gyXVtDQEBIXTRbQ0gyXVtDQEhdNFtDSDNdKU9DKD1PKVtDSDJdQyg9TlxbQ0gyXU9GKVxbTkhdW0NIMl1bQ0gyXVtDSDJdW0NIM10=

>  <s_glide_docking_method>  (1) 
confgen

>  <s_i_glide_gridfile>  (1) 
gpcr_drd2_6luq_protein_autoprepared_prepared

>  <s_lp_Force_Field>  (1) 
S-OPLS

>  <s_lp_Variant>  (1) 
DiffSBDD_86-3

>  <s_m_source_file>  (1) 
generated_generic_title2_ligand_DiffSBDD_2026-06-23_prepared.sdf

>  <GenAI_Model>  (1) 
DiffSBDD

>  <Protein>  (1) 
generic_title2

$$$$
DiffSBDD_87
     RDKit          3D

  0  0  0  0  0  0  0  0  0  0999 V3000
M  V30 BEGIN CTAB
M  V30 COUNTS 75 78 0 0 1
M  V30 BEGIN ATOM
M  V30 1 S 11.775409 7.681951 -4.482874 0
M  V30 2 C 7.912836 0.585457 -13.310664 0
M  V30 3 C 6.983992 2.798410 -17.813807 0
M  V30 4 C 8.331715 1.808261 -16.136642 0
M  V30 5 O 11.004903 5.990225 -1.185029 0
M  V30 6 C 8.328624 5.189353 -9.354993 0
M  V30 7 C 7.552153 4.597490 -12.214915 0
M  V30 8 C 9.758407 6.627850 -1.273242 0
M  V30 9 C 10.166166 9.100549 -6.091740 0
M  V30 10 C 9.054457 5.718129 -10.453602 0
M  V30 11 C 8.689471 -0.805278 -16.232805 0
M  V30 12 C 10.975412 6.951696 -2.143564 0 CFG=2
M  V30 13 O 10.046632 6.729934 -6.442126 0
M  V30 14 C 7.283410 4.230100 -13.562733 0
M  V30 15 C 11.083275 6.390231 -3.524948 0
M  V30 16 C 10.943107 7.790020 -6.086853 0 CFG=2
M  V30 17 N 7.375318 2.894363 -16.396831 0
M  V30 18 C 10.418307 7.009292 -8.848814 0
M  V30 19 C 10.092368 6.655331 -10.175308 0
M  V30 20 C 6.564303 0.347874 -14.009593 0
M  V30 21 C 9.713592 6.438154 -7.764407 0
M  V30 22 C 8.660250 5.545815 -8.026580 0
M  V30 23 C 9.670603 5.574665 -12.919971 0
M  V30 24 C 7.138299 0.295446 -17.722548 0
M  V30 25 N 6.537046 0.217253 -15.365165 0
M  V30 26 C 7.692639 0.383747 -16.279912 0 CFG=2
M  V30 27 C 6.250845 1.482891 -18.063539 0
M  V30 28 O 5.543007 0.279314 -13.333567 0
M  V30 29 C 7.025584 5.380076 -16.564729 0
M  V30 30 C 12.064520 10.706873 -6.384966 0
M  V30 31 C 7.918544 4.224652 -16.056059 0 CFG=1
M  V30 32 C 8.751804 5.294607 -11.875383 0
M  V30 33 C 8.212811 4.539737 -14.579858 0
M  V30 34 C 10.916691 10.323241 -5.470038 0
M  V30 35 C 9.402334 5.190219 -14.248407 0
M  V30 36 H 7.999315 1.630254 -13.019998 0
M  V30 37 H 7.921567 0.009586 -12.385014 0
M  V30 38 H 8.818740 0.310751 -13.833119 0
M  V30 39 H 6.280472 3.576325 -18.100393 0
M  V30 40 H 7.852831 2.895119 -18.466533 0
M  V30 41 H 9.201961 1.916632 -16.788338 0
M  V30 42 H 8.672865 1.959535 -15.131159 0
M  V30 43 H 7.529160 4.488654 -9.524705 0
M  V30 44 H 6.828905 4.361888 -11.452116 0
M  V30 45 H 9.517583 7.190249 -0.385038 0
M  V30 46 H 8.970545 5.994597 -1.674431 0
M  V30 47 H 9.845045 9.299676 -7.112267 0
M  V30 48 H 9.238925 8.886518 -5.585046 0
M  V30 49 H 9.595966 -0.556861 -16.785015 0
M  V30 50 H 8.975336 -1.147404 -15.242857 0
M  V30 51 H 8.276970 -1.685566 -16.728853 0
M  V30 52 H 11.594453 7.811110 -1.886204 0
M  V30 53 H 6.359937 3.725644 -13.809066 0
M  V30 54 H 10.127335 6.030174 -3.902863 0
M  V30 55 H 11.810739 5.590137 -3.525015 0
M  V30 56 H 11.787430 7.845278 -6.767186 0
M  V30 57 H 11.217706 7.706265 -8.677413 0
M  V30 58 H 10.652457 7.092930 -10.982009 0
M  V30 59 H 8.103829 5.124022 -7.205969 0
M  V30 60 H 10.593216 6.084955 -12.705295 0
M  V30 61 H 6.572996 -0.626664 -17.870276 0
M  V30 62 H 7.953489 0.268517 -18.444377 0
M  V30 63 H 5.642513 0.044589 -15.797540 0
M  V30 64 H 5.375322 1.452628 -17.428938 0
M  V30 65 H 5.899699 1.423534 -19.094112 0
M  V30 66 H 7.395836 6.345171 -16.220157 0
M  V30 67 H 6.998193 5.457721 -17.651010 0
M  V30 68 H 6.005872 5.286743 -16.192681 0
M  V30 69 H 12.279029 11.772999 -6.384521 0
M  V30 70 H 12.975152 10.159164 -6.136076 0
M  V30 71 H 11.775421 10.429159 -7.396582 0
M  V30 72 H 8.867972 4.308050 -16.589137 0
M  V30 73 H 10.259569 11.166489 -5.283769 0
M  V30 74 H 11.284146 10.171166 -4.457607 0
M  V30 75 H 10.115724 5.427136 -15.023791 0
M  V30 END ATOM
M  V30 BEGIN BOND
M  V30 1 1 8 5
M  V30 2 2 10 6
M  V30 3 1 12 5
M  V30 4 1 12 8
M  V30 5 2 14 7
M  V30 6 1 15 1
M  V30 7 1 15 12
M  V30 8 1 16 1
M  V30 9 1 16 9
M  V30 10 1 16 13
M  V30 11 1 17 3
M  V30 12 1 17 4
M  V30 13 1 19 10
M  V30 14 2 19 18
M  V30 15 1 20 2
M  V30 16 1 21 13
M  V30 17 1 21 18
M  V30 18 1 22 6
M  V30 19 2 22 21
M  V30 20 1 25 20
M  V30 21 1 26 4
M  V30 22 1 26 11
M  V30 23 1 26 24
M  V30 24 1 26 25 CFG=1
M  V30 25 1 27 3
M  V30 26 1 27 24
M  V30 27 2 28 20
M  V30 28 1 31 17
M  V30 29 1 31 29
M  V30 30 1 32 7
M  V30 31 1 32 10
M  V30 32 2 32 23
M  V30 33 1 33 14
M  V30 34 1 33 31
M  V30 35 1 34 9
M  V30 36 1 34 30
M  V30 37 1 35 23
M  V30 38 2 35 33
M  V30 39 1 36 2
M  V30 40 1 37 2
M  V30 41 1 38 2
M  V30 42 1 39 3
M  V30 43 1 40 3
M  V30 44 1 41 4
M  V30 45 1 42 4
M  V30 46 1 43 6
M  V30 47 1 44 7
M  V30 48 1 45 8
M  V30 49 1 46 8
M  V30 50 1 47 9
M  V30 51 1 48 9
M  V30 52 1 49 11
M  V30 53 1 50 11
M  V30 54 1 51 11
M  V30 55 1 12 52 CFG=1
M  V30 56 1 53 14
M  V30 57 1 54 15
M  V30 58 1 55 15
M  V30 59 1 16 56 CFG=3
M  V30 60 1 57 18
M  V30 61 1 58 19
M  V30 62 1 59 22
M  V30 63 1 60 23
M  V30 64 1 61 24
M  V30 65 1 62 24
M  V30 66 1 63 25
M  V30 67 1 64 27
M  V30 68 1 65 27
M  V30 69 1 66 29
M  V30 70 1 67 29
M  V30 71 1 68 29
M  V30 72 1 69 30
M  V30 73 1 70 30
M  V30 74 1 71 30
M  V30 75 1 31 72 CFG=3
M  V30 76 1 73 34
M  V30 77 1 74 34
M  V30 78 1 75 35
M  V30 END BOND
M  V30 END CTAB
M  END
>  <i_epik_Tot_Q>  (1) 
0

>  <i_epik_Tot_abs_Q>  (1) 
0

>  <i_i_glide_confnum>  (1) 
2431

>  <i_i_glide_lignum>  (1) 
159

>  <i_i_glide_posenum>  (1) 
46

>  <i_i_glide_rotatable_bonds>  (1) 
12

>  <i_lp_mmshare_version>  (1) 
72125

>  <i_m_source_file_index>  (1) 
88

>  <i_f3d_flags>  (1) 
0

>  <num_sample>  (1) 
100

>  <b_lp_Chiralities_Consistent>  (1) 
1

>  <r_epik_Charging_Adjusted_Penalty>  (1) 
0.99208626642465525

>  <r_epik_Ionization_Penalty>  (1) 
0.99208788217497046

>  <r_epik_Ionization_Penalty_Charging>  (1) 
0

>  <r_epik_Ionization_Penalty_Neutral>  (1) 
0.99208788217497046

>  <r_epik_State_Penalty>  (1) 
0.99208626642465525

>  <r_glide_ring_energy>  (1) 
0

>  <r_i_docking_score>  (1) 
-0.37119398240606705

>  <r_i_glide_ecoul>  (1) 
1.7934186959267313

>  <r_i_glide_eff_state_penalty>  (1) 
0.99208626642465525

>  <r_i_glide_einternal>  (1) 
25.935041951312783

>  <r_i_glide_emodel>  (1) 
0.68098246521161698

>  <r_i_glide_emodel_strain>  (1) 
6.8095325767406081

>  <r_i_glide_energy>  (1) 
-16.5049792006362

>  <r_i_glide_erotb>  (1) 
0.7439263771496134

>  <r_i_glide_esite>  (1) 
0

>  <r_i_glide_evdw>  (1) 
-18.298397896562932

>  <r_i_glide_gscore>  (1) 
-1.3632802488307223

>  <r_i_glide_gscore_strain>  (1) 
0.70238314418515202

>  <r_i_glide_hbond>  (1) 
0

>  <r_i_glide_ligand_efficiency>  (1) 
-0.010605542354459058

>  <r_i_glide_ligand_efficiency_ln>  (1) 
-0.081485317344708402

>  <r_i_glide_ligand_efficiency_sa>  (1) 
-0.034691432296949203

>  <r_i_glide_lipo>  (1) 
-2.61490368874427

>  <r_i_glide_metal>  (1) 
-0

>  <r_i_glide_rewards>  (1) 
0.45122100901791928

>  <r_lp_Energy>  (1) 
42.125440999999995

>  <r_lp_tautomer_probability>  (1) 
1

>  <s_epik_Chemistry_Notes>  (1) 
This compound contains an acetal/aminal-like group ( X-CH(R)-Y where X, Y are N, S, or O) that may be acid/base labile, releasing an aldehyde.

>  <s_epik_cmdline>  (1) 
J2VwaWtfcHl0aG9uJywgJy1waHQnLCAnMS4wJywgJy1waCcsICc3LjQnLCAnLXRuJywgJzgnLCAnLW1hJywgJzUwMCcsICctaW1hZScsICc8aW5maWxlLm1hZT4nLCAnLW9tYWUnLCAnPG91dGZpbGUubWFlPic=

>  <s_epik_input>  (1) 
W0NIMl0xT1tDQEhdMVtDSDJdU1tDQEhdKFtDSDJdW0NIMl1bQ0gzXSlPYyhbY0hdW2NIXTIpW2NIXVtjSF1jMi1jM1tjSF1bY0hdYyhbY0hdW2NIXTMpW0NASF0oW0NIM10pTihbQ0gyXVtDSDJdW0NIMl00KVtDSDJdW0NAQF00KFtDSDNdKVtOSF1DKD1PKVtDSDNd

>  <s_glide_docking_method>  (1) 
confgen

>  <s_i_glide_gridfile>  (1) 
gpcr_drd2_6luq_protein_autoprepared_prepared

>  <s_lp_Force_Field>  (1) 
S-OPLS

>  <s_lp_Variant>  (1) 
DiffSBDD_87-3

>  <s_m_source_file>  (1) 
generated_generic_title2_ligand_DiffSBDD_2026-06-23_prepared.sdf

>  <GenAI_Model>  (1) 
DiffSBDD

>  <Protein>  (1) 
generic_title2

$$$$
DiffSBDD_2
     RDKit          3D

  0  0  0  0  0  0  0  0  0  0999 V3000
M  V30 BEGIN CTAB
M  V30 COUNTS 71 75 0 0 1
M  V30 BEGIN ATOM
M  V30 1 C 6.493868 -1.874211 -19.801879 0
M  V30 2 N 11.949003 0.877942 -19.914035 0 CFG=1 CHG=1
M  V30 3 C 14.703814 -0.350373 -19.130806 0
M  V30 4 C 12.480284 4.411839 -16.909302 0
M  V30 5 C 15.823941 3.221798 -20.103689 0
M  V30 6 C 6.345526 -5.541087 -18.618684 0 CFG=1
M  V30 7 C 14.654609 4.400922 -18.190704 0
M  V30 8 O 10.479103 -1.139465 -22.683551 0
M  V30 9 C 6.796797 -4.264553 -19.315484 0
M  V30 10 C 9.527927 0.597656 -19.668535 0 CFG=2
M  V30 11 C 13.127445 2.339764 -18.303065 0
M  V30 12 C 10.535801 -0.471139 -21.652952 0
M  V30 13 C 14.911270 0.671104 -21.428703 0
M  V30 14 C 7.062531 -6.871857 -18.722761 0
M  V30 15 O 7.319167 -5.963168 -17.647784 0
M  V30 16 O 9.812535 -0.251174 -18.568827 0
M  V30 17 O 13.008598 1.642487 -17.298202 0
M  V30 18 C 4.817139 -3.012255 -18.275987 0
M  V30 19 C 4.244713 -4.377799 -17.984988 0
M  V30 20 C 15.325005 4.340951 -19.552308 0
M  V30 21 C 10.966317 4.160580 -16.857379 0
M  V30 22 F 4.332272 -6.673942 -17.852170 0
M  V30 23 C 8.364809 -3.085760 -20.784570 0
M  V30 24 C 11.899423 0.069957 -21.168385 0
M  V30 25 C 6.066640 -3.049950 -19.152452 0
M  V30 26 C 14.599052 0.967555 -19.935712 0
M  V30 27 C 13.197120 3.880448 -18.174914 0 CFG=1
M  V30 28 C 7.641438 -1.890837 -20.616427 0
M  V30 29 C 7.948589 -4.264041 -20.138491 0
M  V30 30 C 13.200886 1.709943 -19.724299 0 CFG=1
M  V30 31 C 8.096049 -0.619638 -21.316188 0
M  V30 32 N 9.438412 -0.170630 -20.912655 0
M  V30 33 C 4.938811 -5.508721 -18.138289 0
M  V30 34 C 15.783678 1.853402 -19.446328 0
M  V30 35 C 10.668650 1.618311 -19.736015 0
M  V30 36 H 5.936032 -0.957640 -19.674407 0
M  V30 37 H 15.678843 -0.809870 -19.291683 0
M  V30 38 H 14.615119 -0.195112 -18.055923 0
M  V30 39 H 13.953978 -1.085626 -19.413474 0
M  V30 40 H 12.950877 3.997291 -16.017334 0
M  V30 41 H 12.631515 5.489840 -16.843182 0
M  V30 42 H 16.279565 3.271108 -21.082201 0
M  V30 43 H 14.679443 5.447718 -17.886368 0
M  V30 44 H 15.255276 3.880216 -17.444118 0
M  V30 45 H 8.591685 1.122091 -19.470775 0
M  V30 46 H 15.974374 0.482012 -21.582414 0
M  V30 47 H 14.423928 -0.220026 -21.814390 0
M  V30 48 H 14.644036 1.508299 -22.074259 0
M  V30 49 H 6.555705 -7.783117 -18.411925 0
M  V30 50 H 7.883465 -7.001993 -19.420659 0
M  V30 51 H 8.996891 -0.528331 -18.172182 0
M  V30 52 H 5.040240 -2.513847 -17.331556 0
M  V30 53 H 4.052679 -2.421864 -18.783325 0
M  V30 54 H 3.225548 -4.415329 -17.628477 0
M  V30 55 H 15.388755 5.273089 -20.096871 0
M  V30 56 H 10.531884 4.636172 -15.977687 0
M  V30 57 H 10.465718 4.565668 -17.736761 0
M  V30 58 H 10.733728 3.099523 -16.785913 0
M  V30 59 H 9.243932 -3.100815 -21.411114 0
M  V30 60 H 12.533778 -0.805803 -21.061784 0
M  V30 61 H 12.282762 0.673860 -21.991042 0
M  V30 62 H 12.684183 4.301372 -19.039763 0
M  V30 63 H 8.515183 -5.170222 -20.275361 0
M  V30 64 H 13.145181 2.521923 -20.450455 0
M  V30 65 H 7.378209 0.178187 -21.121196 0
M  V30 66 H 8.033318 -0.783079 -22.393385 0
M  V30 67 H 16.738684 1.367610 -19.651673 0
M  V30 68 H 15.775220 1.948664 -18.362278 0
M  V30 69 H 10.522997 2.319802 -20.560083 0
M  V30 70 H 10.625431 2.204642 -18.823846 0
M  V30 71 H 11.934279 0.211665 -19.151119 0
M  V30 END ATOM
M  V30 BEGIN BOND
M  V30 1 1 9 6
M  V30 2 2 12 8
M  V30 3 1 14 6
M  V30 4 1 6 15 CFG=1
M  V30 5 1 15 14
M  V30 6 1 16 10
M  V30 7 2 17 11
M  V30 8 1 19 18
M  V30 9 2 20 5
M  V30 10 1 20 7
M  V30 11 1 21 4
M  V30 12 1 24 2
M  V30 13 1 24 12
M  V30 14 1 25 1
M  V30 15 2 25 9
M  V30 16 1 25 18
M  V30 17 1 26 3
M  V30 18 1 26 13
M  V30 19 1 27 4
M  V30 20 1 27 7
M  V30 21 1 27 11
M  V30 22 2 28 1
M  V30 23 1 28 23
M  V30 24 1 29 9
M  V30 25 2 29 23
M  V30 26 1 30 2
M  V30 27 1 30 11
M  V30 28 1 30 26
M  V30 29 1 31 28
M  V30 30 1 32 10
M  V30 31 1 32 12
M  V30 32 1 32 31
M  V30 33 1 33 6
M  V30 34 2 33 19
M  V30 35 1 33 22
M  V30 36 1 34 5
M  V30 37 1 34 26
M  V30 38 1 35 2
M  V30 39 1 35 10
M  V30 40 1 36 1
M  V30 41 1 37 3
M  V30 42 1 38 3
M  V30 43 1 39 3
M  V30 44 1 40 4
M  V30 45 1 41 4
M  V30 46 1 42 5
M  V30 47 1 43 7
M  V30 48 1 44 7
M  V30 49 1 10 45 CFG=1
M  V30 50 1 46 13
M  V30 51 1 47 13
M  V30 52 1 48 13
M  V30 53 1 49 14
M  V30 54 1 50 14
M  V30 55 1 51 16
M  V30 56 1 52 18
M  V30 57 1 53 18
M  V30 58 1 54 19
M  V30 59 1 55 20
M  V30 60 1 56 21
M  V30 61 1 57 21
M  V30 62 1 58 21
M  V30 63 1 59 23
M  V30 64 1 60 24
M  V30 65 1 61 24
M  V30 66 1 27 62 CFG=3
M  V30 67 1 63 29
M  V30 68 1 30 64 CFG=3
M  V30 69 1 65 31
M  V30 70 1 66 31
M  V30 71 1 67 34
M  V30 72 1 68 34
M  V30 73 1 69 35
M  V30 74 1 70 35
M  V30 75 1 2 71 CFG=1
M  V30 END BOND
M  V30 END CTAB
M  END
>  <i_epik_Tot_Q>  (1) 
1

>  <i_epik_Tot_abs_Q>  (1) 
1

>  <i_i_glide_confnum>  (1) 
3

>  <i_i_glide_lignum>  (1) 
6

>  <i_i_glide_posenum>  (1) 
319

>  <i_i_glide_rotatable_bonds>  (1) 
5

>  <i_lp_mmshare_version>  (1) 
72125

>  <i_m_source_file_index>  (1) 
3

>  <i_f3d_flags>  (1) 
0

>  <num_sample>  (1) 
100

>  <b_lp_Chiralities_Consistent>  (1) 
1

>  <r_epik_Charging_Adjusted_Penalty>  (1) 
2.4002963273514464

>  <r_epik_Ionization_Penalty>  (1) 
1.2026340853706476

>  <r_epik_Ionization_Penalty_Charging>  (1) 
1.2001481636757232

>  <r_epik_Ionization_Penalty_Neutral>  (1) 
0.0024859216949244217

>  <r_epik_State_Penalty>  (1) 
1.2001481636757232

>  <r_glide_ring_energy>  (1) 
0

>  <r_i_docking_score>  (1) 
-0.29933745260399514

>  <r_i_glide_ecoul>  (1) 
-1.0271127869737424

>  <r_i_glide_eff_state_penalty>  (1) 
1.2001481636757232

>  <r_i_glide_einternal>  (1) 
7.1405439066346261

>  <r_i_glide_emodel>  (1) 
-23.487580504792959

>  <r_i_glide_emodel_strain>  (1) 
0.46680552267481801

>  <r_i_glide_energy>  (1) 
-24.802621036743346

>  <r_i_glide_erotb>  (1) 
0.26041846348708686

>  <r_i_glide_esite>  (1) 
-0.021238558290287694

>  <r_i_glide_evdw>  (1) 
-23.775508249769604

>  <r_i_glide_gscore>  (1) 
-1.4994856162797183

>  <r_i_glide_gscore_strain>  (1) 
0

>  <r_i_glide_hbond>  (1) 
0

>  <r_i_glide_ligand_efficiency>  (1) 
-0.0085524986458284328

>  <r_i_glide_ligand_efficiency_ln>  (1) 
-0.065711214283398572

>  <r_i_glide_ligand_efficiency_sa>  (1) 
-0.027975790188302926

>  <r_i_glide_lipo>  (1) 
-0.20379328761714335

>  <r_i_glide_metal>  (1) 
-0

>  <r_i_glide_rewards>  (1) 
-0.19202990332483244

>  <r_lp_Energy>  (1) 
72.081104999999994

>  <r_lp_tautomer_probability>  (1) 
0.99995000000000001

>  <s_epik_Chemistry_Notes>  (1) 
This compound contains an acetal/aminal-like group ( X-CH(R)-Y where X, Y are N, S, or O) that may be acid/base labile, releasing an aldehyde.

>  <s_epik_cmdline>  (1) 
J2VwaWtfcHl0aG9uJywgJy1waHQnLCAnMS4wJywgJy1waCcsICc3LjQnLCAnLXRuJywgJzgnLCAnLW1hJywgJzUwMCcsICctaW1hZScsICc8aW5maWxlLm1hZT4nLCAnLW9tYWUnLCAnPG91dGZpbGUubWFlPic=

>  <s_epik_input>  (1) 
TzFbQ0gyXVtDQF0xMmMzYyhbQ0gyXVtDSF09QzJGKVtjSF1jKFtjSF1bY0hdMylbQ0gyXU4oW0NAQEhdKFtPSF0pW0NIMl00KUMoPU8pW0NIMl1ONFtDQEhdKEM1KFtDSDNdKVtDSDNdKUMoPU8pW0NAQEhdKFtDSDJdW0NIM10pW0NIMl0vW0NIXT1bQ0hdXFtDSDJdNQ==

>  <s_glide_docking_method>  (1) 
confgen

>  <s_i_glide_gridfile>  (1) 
gpcr_drd2_6luq_protein_autoprepared_prepared

>  <s_lp_Force_Field>  (1) 
S-OPLS

>  <s_lp_Variant>  (1) 
DiffSBDD_2-3

>  <s_m_source_file>  (1) 
generated_generic_title2_ligand_DiffSBDD_2026-06-23_prepared.sdf

>  <GenAI_Model>  (1) 
DiffSBDD

>  <Protein>  (1) 
generic_title2

$$$$
DiffSBDD_61
     RDKit          3D

  0  0  0  0  0  0  0  0  0  0999 V3000
M  V30 BEGIN CTAB
M  V30 COUNTS 45 46 0 0 1
M  V30 BEGIN ATOM
M  V30 1 C 11.773269 5.987632 -16.683238 0
M  V30 2 O 7.775227 6.622411 -13.753941 0 CHG=-1
M  V30 3 C 10.975401 7.236472 -5.673297 0
M  V30 4 O 9.333551 4.918582 -14.965527 0
M  V30 5 N 11.830309 3.925796 -18.053508 0
M  V30 6 O 11.375383 8.380900 -5.966508 0 CHG=-1
M  V30 7 C 10.032094 7.114254 -10.820674 0
M  V30 8 C 11.289998 4.530174 -16.824177 0 CFG=2
M  V30 9 P 9.389952 4.508121 -16.626170 0
M  V30 10 F 8.863321 4.790229 -8.219280 0
M  V30 11 C 13.651285 2.830793 -19.113233 0
M  V30 12 N 10.394303 6.442452 -6.607946 0
M  V30 13 O 7.102548 4.153585 -13.841323 0
M  V30 14 O 8.811754 5.590217 -17.457131 0 CHG=-1
M  V30 15 C 10.951606 7.797759 -8.664640 0
M  V30 16 O 9.058332 4.872352 -12.341787 0
M  V30 17 F 12.635855 0.688415 -19.089531 0
M  V30 18 P 8.157001 5.190632 -13.752996 0
M  V30 19 C 10.282452 6.710257 -8.031926 0
M  V30 20 C 9.497068 5.831194 -8.811647 0
M  V30 21 C 11.430564 2.530763 -18.221465 0
M  V30 22 C 13.289583 3.839986 -18.023632 0
M  V30 23 C 12.394388 1.987166 -19.273618 0 CFG=1
M  V30 24 C 9.375260 6.030802 -10.206059 0
M  V30 25 O 11.087919 6.790170 -4.512562 0
M  V30 26 C 8.530948 5.078300 -11.042317 0
M  V30 27 C 10.819119 7.990221 -10.051333 0
M  V30 28 O 8.900318 3.118407 -16.785729 0
M  V30 29 H 12.856752 6.065996 -16.605446 0
M  V30 30 H 11.446625 6.595426 -17.527184 0
M  V30 31 H 11.375411 6.432926 -15.773820 0
M  V30 32 H 9.935634 7.269847 -11.885924 0
M  V30 33 H 11.699234 3.975765 -15.985021 0
M  V30 34 H 13.883311 3.341815 -20.048214 0
M  V30 35 H 14.520433 2.237080 -18.829938 0
M  V30 36 H 10.022105 5.560442 -6.290189 0
M  V30 37 H 11.569636 8.473174 -8.111957 0
M  V30 38 H 11.551604 1.990905 -17.280345 0
M  V30 39 H 10.397376 2.426298 -18.550518 0
M  V30 40 H 13.764807 4.805702 -18.195921 0
M  V30 41 H 13.620322 3.464707 -17.053328 0
M  V30 42 H 11.976525 2.108079 -20.273936 0
M  V30 43 H 8.485751 4.103428 -10.557487 0
M  V30 44 H 7.509579 5.454677 -11.087244 0
M  V30 45 H 11.327772 8.811011 -10.525979 0
M  V30 END ATOM
M  V30 BEGIN BOND
M  V30 1 1 6 3
M  V30 2 1 8 1
M  V30 3 1 8 5
M  V30 4 1 9 4
M  V30 5 1 9 8
M  V30 6 1 12 3
M  V30 7 1 14 9
M  V30 8 1 18 2
M  V30 9 1 18 4
M  V30 10 2 18 13
M  V30 11 1 18 16
M  V30 12 1 19 12
M  V30 13 2 19 15
M  V30 14 1 20 10
M  V30 15 1 20 19
M  V30 16 1 21 5
M  V30 17 1 22 5
M  V30 18 1 22 11
M  V30 19 1 23 11
M  V30 20 1 23 17
M  V30 21 1 23 21
M  V30 22 1 24 7
M  V30 23 2 24 20
M  V30 24 2 25 3
M  V30 25 1 26 16
M  V30 26 1 26 24
M  V30 27 2 27 7
M  V30 28 1 27 15
M  V30 29 2 28 9
M  V30 30 1 29 1
M  V30 31 1 30 1
M  V30 32 1 31 1
M  V30 33 1 32 7
M  V30 34 1 8 33 CFG=1
M  V30 35 1 34 11
M  V30 36 1 35 11
M  V30 37 1 36 12
M  V30 38 1 37 15
M  V30 39 1 38 21
M  V30 40 1 39 21
M  V30 41 1 40 22
M  V30 42 1 41 22
M  V30 43 1 23 42 CFG=3
M  V30 44 1 43 26
M  V30 45 1 44 26
M  V30 46 1 45 27
M  V30 END BOND
M  V30 END CTAB
M  END
>  <i_epik_Tot_Q>  (1) 
-3

>  <i_epik_Tot_abs_Q>  (1) 
3

>  <i_i_glide_confnum>  (1) 
617

>  <i_i_glide_lignum>  (1) 
98

>  <i_i_glide_posenum>  (1) 
302

>  <i_i_glide_rotatable_bonds>  (1) 
9

>  <i_lp_mmshare_version>  (1) 
72125

>  <i_m_source_file_index>  (1) 
62

>  <i_f3d_flags>  (1) 
0

>  <num_sample>  (1) 
100

>  <b_lp_Chiralities_Consistent>  (1) 
1

>  <r_epik_Charging_Adjusted_Penalty>  (1) 
1.3021205518869732

>  <r_epik_Ionization_Penalty>  (1) 
1.2351473723199373

>  <r_epik_Ionization_Penalty_Charging>  (1) 
0.00073408944429159239

>  <r_epik_Ionization_Penalty_Neutral>  (1) 
1.2344132828756458

>  <r_epik_State_Penalty>  (1) 
1.3013864624426816

>  <r_glide_ring_energy>  (1) 
0

>  <r_i_docking_score>  (1) 
-0.072013522868112023

>  <r_i_glide_ecoul>  (1) 
1.4593272510061341

>  <r_i_glide_eff_state_penalty>  (1) 
1.3013864624426816

>  <r_i_glide_einternal>  (1) 
9.6343849502429695

>  <r_i_glide_emodel>  (1) 
-27.43754331051333

>  <r_i_glide_emodel_strain>  (1) 
0.12545827458838943

>  <r_i_glide_energy>  (1) 
-30.025139695518888

>  <r_i_glide_erotb>  (1) 
0.71811031056760655

>  <r_i_glide_esite>  (1) 
0

>  <r_i_glide_evdw>  (1) 
-31.484466946525021

>  <r_i_glide_gscore>  (1) 
-1.3733999853107937

>  <r_i_glide_gscore_strain>  (1) 
0

>  <r_i_glide_hbond>  (1) 
0

>  <r_i_glide_ligand_efficiency>  (1) 
-0.0025719115310040008

>  <r_i_glide_ligand_efficiency_ln>  (1) 
-0.016622835486868472

>  <r_i_glide_ligand_efficiency_sa>  (1) 
-0.007809838191686601

>  <r_i_glide_lipo>  (1) 
-0.26706518837946419

>  <r_i_glide_metal>  (1) 
-0

>  <r_i_glide_rewards>  (1) 
-0.46912084782360486

>  <r_lp_Energy>  (1) 
20.353621999999998

>  <s_epik_cmdline>  (1) 
J2VwaWtfcHl0aG9uJywgJy1waHQnLCAnMS4wJywgJy1waCcsICc3LjQnLCAnLXRuJywgJzgnLCAnLW1hJywgJzUwMCcsICctaW1hZScsICc8aW5maWxlLm1hZT4nLCAnLW9tYWUnLCAnPG91dGZpbGUubWFlPic=

>  <s_epik_input>  (1) 
W0NIMl0xW0NIMl1bQ0BASF0oRilbQ0gyXU4xW0NAQEhdKFtDSDNdKVtQQF0oPU8pKFtPSF0pT1tQQEBdKD1PKShbT0hdKU9bQ0gyXWMoYzJGKVtjSF1bY0hdW2NIXWMyW05IXUMoPU8pW09IXQ==

>  <s_glide_docking_method>  (1) 
confgen

>  <s_i_glide_gridfile>  (1) 
gpcr_drd2_6luq_protein_autoprepared_prepared

>  <s_lp_Force_Field>  (1) 
S-OPLS

>  <s_lp_Variant>  (1) 
DiffSBDD_61-3

>  <s_m_source_file>  (1) 
generated_generic_title2_ligand_DiffSBDD_2026-06-23_prepared.sdf

>  <GenAI_Model>  (1) 
DiffSBDD

>  <Protein>  (1) 
generic_title2

$$$$
DiffSBDD_87
     RDKit          3D

  0  0  0  0  0  0  0  0  0  0999 V3000
M  V30 BEGIN CTAB
M  V30 COUNTS 75 78 0 0 1
M  V30 BEGIN ATOM
M  V30 1 S 11.454649 6.387413 -6.776115 0
M  V30 2 C 5.362617 -0.393739 -15.044338 0
M  V30 3 C 7.342230 1.781827 -19.353093 0
M  V30 4 C 8.876645 1.053844 -17.605390 0
M  V30 5 O 11.386828 6.517060 -2.704399 0
M  V30 6 C 9.201060 4.280782 -11.234076 0
M  V30 7 C 9.746100 5.201905 -14.661842 0
M  V30 8 C 12.550827 7.158746 -3.201932 0
M  V30 9 C 9.758190 8.559127 -7.119917 0
M  V30 10 C 9.019473 5.204809 -12.282002 0
M  V30 11 C 9.400411 -1.351393 -17.343902 0
M  V30 12 C 11.760835 6.163446 -4.039627 0 CFG=2
M  V30 13 O 9.324989 6.486177 -8.290780 0
M  V30 14 C 9.613326 4.768131 -15.992119 0
M  V30 15 C 10.713669 6.386796 -5.115009 0
M  V30 16 C 10.357007 7.336741 -7.844321 0 CFG=2
M  V30 17 N 7.911251 2.077597 -18.018769 0
M  V30 18 C 9.130058 7.014597 -10.642737 0
M  V30 19 C 9.004231 6.586513 -11.970807 0
M  V30 20 C 6.174941 0.037225 -16.226792 0
M  V30 21 C 9.285855 6.080147 -9.601872 0
M  V30 22 C 9.346434 4.718220 -9.906386 0
M  V30 23 C 7.813378 3.865725 -14.030037 0
M  V30 24 C 7.662068 -0.708842 -18.994016 0
M  V30 25 N 7.313148 -0.645807 -16.469489 0
M  V30 26 C 8.233372 -0.369736 -17.593805 0 CFG=2
M  V30 27 C 6.747384 0.368031 -19.553263 0
M  V30 28 O 5.775738 0.966691 -16.908618 0
M  V30 29 C 7.581844 4.504672 -18.548489 0
M  V30 30 C 11.589923 9.363352 -5.317877 0
M  V30 31 C 8.431158 3.446299 -17.822487 0 CFG=1
M  V30 32 C 8.857037 4.749881 -13.665366 0
M  V30 33 C 8.574354 3.893505 -16.359569 0
M  V30 34 C 10.806468 9.587137 -6.595932 0
M  V30 35 C 7.662048 3.447012 -15.372352 0
M  V30 36 H 5.894445 -0.240893 -14.091944 0
M  V30 37 H 4.411280 0.140423 -15.021204 0
M  V30 38 H 5.193601 -1.428478 -15.243725 0
M  V30 39 H 6.496023 2.448765 -19.535797 0
M  V30 40 H 8.098076 1.946853 -20.114486 0
M  V30 41 H 9.732910 1.090881 -18.301714 0
M  V30 42 H 9.314834 1.303238 -16.630974 0
M  V30 43 H 9.240265 3.221842 -11.456622 0
M  V30 44 H 10.551098 5.865292 -14.390092 0
M  V30 45 H 13.447041 6.783046 -2.731123 0
M  V30 46 H 12.437811 8.242397 -3.217140 0
M  V30 47 H 9.125341 9.061842 -7.849648 0
M  V30 48 H 9.042839 8.233717 -6.363886 0
M  V30 49 H 10.185381 -1.244658 -18.111456 0
M  V30 50 H 9.894464 -1.210068 -16.373856 0
M  V30 51 H 9.044542 -2.390008 -17.351742 0
M  V30 52 H 12.184321 5.190227 -4.103392 0
M  V30 53 H 10.317652 5.123618 -16.733548 0
M  V30 54 H 10.139172 7.254350 -4.881445 0
M  V30 55 H 10.002919 5.586316 -5.176134 0
M  V30 56 H 10.943062 7.689434 -8.699818 0
M  V30 57 H 9.061901 8.068919 -10.409860 0
M  V30 58 H 8.855383 7.310684 -12.753764 0
M  V30 59 H 9.489797 4.000790 -9.111292 0
M  V30 60 H 7.116525 3.521096 -13.274329 0
M  V30 61 H 7.197987 -1.686486 -18.985037 0
M  V30 62 H 8.486903 -0.773582 -19.698454 0
M  V30 63 H 7.572346 -1.402932 -15.841190 0
M  V30 64 H 5.777587 0.274277 -19.072050 0
M  V30 65 H 6.558087 0.199950 -20.616857 0
M  V30 66 H 7.947244 5.519303 -18.359391 0
M  V30 67 H 7.611564 4.362823 -19.628350 0
M  V30 68 H 6.542431 4.459736 -18.218193 0
M  V30 69 H 12.273998 10.173633 -5.053416 0
M  V30 70 H 10.903582 9.193440 -4.477958 0
M  V30 71 H 12.200928 8.501567 -5.453809 0
M  V30 72 H 9.434969 3.496719 -18.252980 0
M  V30 73 H 11.510982 9.875639 -7.374105 0
M  V30 74 H 10.282699 10.482217 -6.309071 0
M  V30 75 H 6.854567 2.790227 -15.641739 0
M  V30 END ATOM
M  V30 BEGIN BOND
M  V30 1 1 8 5
M  V30 2 2 10 6
M  V30 3 1 12 5
M  V30 4 1 12 8
M  V30 5 2 14 7
M  V30 6 1 15 1
M  V30 7 1 15 12
M  V30 8 1 16 1
M  V30 9 1 16 9
M  V30 10 1 16 13
M  V30 11 1 17 3
M  V30 12 1 17 4
M  V30 13 1 19 10
M  V30 14 2 19 18
M  V30 15 1 20 2
M  V30 16 1 21 13
M  V30 17 1 21 18
M  V30 18 1 22 6
M  V30 19 2 22 21
M  V30 20 1 25 20
M  V30 21 1 26 4
M  V30 22 1 26 11
M  V30 23 1 26 24
M  V30 24 1 26 25 CFG=1
M  V30 25 1 27 3
M  V30 26 1 27 24
M  V30 27 2 28 20
M  V30 28 1 31 17
M  V30 29 1 31 29
M  V30 30 1 32 7
M  V30 31 1 32 10
M  V30 32 2 32 23
M  V30 33 1 33 14
M  V30 34 1 33 31
M  V30 35 1 34 9
M  V30 36 1 34 30
M  V30 37 1 35 23
M  V30 38 2 35 33
M  V30 39 1 36 2
M  V30 40 1 37 2
M  V30 41 1 38 2
M  V30 42 1 39 3
M  V30 43 1 40 3
M  V30 44 1 41 4
M  V30 45 1 42 4
M  V30 46 1 43 6
M  V30 47 1 44 7
M  V30 48 1 45 8
M  V30 49 1 46 8
M  V30 50 1 47 9
M  V30 51 1 48 9
M  V30 52 1 49 11
M  V30 53 1 50 11
M  V30 54 1 51 11
M  V30 55 1 12 52 CFG=1
M  V30 56 1 53 14
M  V30 57 1 54 15
M  V30 58 1 55 15
M  V30 59 1 16 56 CFG=3
M  V30 60 1 57 18
M  V30 61 1 58 19
M  V30 62 1 59 22
M  V30 63 1 60 23
M  V30 64 1 61 24
M  V30 65 1 62 24
M  V30 66 1 63 25
M  V30 67 1 64 27
M  V30 68 1 65 27
M  V30 69 1 66 29
M  V30 70 1 67 29
M  V30 71 1 68 29
M  V30 72 1 69 30
M  V30 73 1 70 30
M  V30 74 1 71 30
M  V30 75 1 31 72 CFG=3
M  V30 76 1 73 34
M  V30 77 1 74 34
M  V30 78 1 75 35
M  V30 END BOND
M  V30 END CTAB
M  END
>  <i_epik_Tot_Q>  (1) 
0

>  <i_epik_Tot_abs_Q>  (1) 
0

>  <i_i_glide_confnum>  (1) 
56

>  <i_i_glide_lignum>  (1) 
159

>  <i_i_glide_posenum>  (1) 
104

>  <i_i_glide_rotatable_bonds>  (1) 
12

>  <i_lp_mmshare_version>  (1) 
72125

>  <i_m_source_file_index>  (1) 
88

>  <i_f3d_flags>  (1) 
0

>  <num_sample>  (1) 
100

>  <b_lp_Chiralities_Consistent>  (1) 
1

>  <r_epik_Charging_Adjusted_Penalty>  (1) 
0.99208626642465525

>  <r_epik_Ionization_Penalty>  (1) 
0.99208788217497046

>  <r_epik_Ionization_Penalty_Charging>  (1) 
0

>  <r_epik_Ionization_Penalty_Neutral>  (1) 
0.99208788217497046

>  <r_epik_State_Penalty>  (1) 
0.99208626642465525

>  <r_glide_ring_energy>  (1) 
0

>  <r_i_docking_score>  (1) 
0.18088031593468479

>  <r_i_glide_ecoul>  (1) 
-1.7931034902744516

>  <r_i_glide_eff_state_penalty>  (1) 
0.99208626642465525

>  <r_i_glide_einternal>  (1) 
24.219999511968787

>  <r_i_glide_emodel>  (1) 
5.4344768510520609

>  <r_i_glide_emodel_strain>  (1) 
12.564454405431789

>  <r_i_glide_energy>  (1) 
-17.698174619070254

>  <r_i_glide_erotb>  (1) 
0.7439263771496134

>  <r_i_glide_esite>  (1) 
-0.029614732177899568

>  <r_i_glide_evdw>  (1) 
-15.905071128795804

>  <r_i_glide_gscore>  (1) 
-0.81120595048997046

>  <r_i_glide_gscore_strain>  (1) 
2.1411136013579473

>  <r_i_glide_hbond>  (1) 
-0.32000000000000001

>  <r_i_glide_ligand_efficiency>  (1) 
0.0051680090267052798

>  <r_i_glide_ligand_efficiency_ln>  (1) 
0.039707243769984128

>  <r_i_glide_ligand_efficiency_sa>  (1) 
0.016904900218006166

>  <r_i_glide_lipo>  (1) 
-2.643339975839079

>  <r_i_glide_metal>  (1) 
-0

>  <r_i_glide_rewards>  (1) 
0.36092785900040558

>  <r_lp_Energy>  (1) 
42.125440999999995

>  <r_lp_tautomer_probability>  (1) 
1

>  <s_epik_Chemistry_Notes>  (1) 
This compound contains an acetal/aminal-like group ( X-CH(R)-Y where X, Y are N, S, or O) that may be acid/base labile, releasing an aldehyde.

>  <s_epik_cmdline>  (1) 
J2VwaWtfcHl0aG9uJywgJy1waHQnLCAnMS4wJywgJy1waCcsICc3LjQnLCAnLXRuJywgJzgnLCAnLW1hJywgJzUwMCcsICctaW1hZScsICc8aW5maWxlLm1hZT4nLCAnLW9tYWUnLCAnPG91dGZpbGUubWFlPic=

>  <s_epik_input>  (1) 
W0NIMl0xT1tDQEhdMVtDSDJdU1tDQEhdKFtDSDJdW0NIMl1bQ0gzXSlPYyhbY0hdW2NIXTIpW2NIXVtjSF1jMi1jM1tjSF1bY0hdYyhbY0hdW2NIXTMpW0NASF0oW0NIM10pTihbQ0gyXVtDSDJdW0NIMl00KVtDSDJdW0NAQF00KFtDSDNdKVtOSF1DKD1PKVtDSDNd

>  <s_glide_docking_method>  (1) 
confgen

>  <s_i_glide_gridfile>  (1) 
gpcr_drd2_6luq_protein_autoprepared_prepared

>  <s_lp_Force_Field>  (1) 
S-OPLS

>  <s_lp_Variant>  (1) 
DiffSBDD_87-3

>  <s_m_source_file>  (1) 
generated_generic_title2_ligand_DiffSBDD_2026-06-23_prepared.sdf

>  <GenAI_Model>  (1) 
DiffSBDD

>  <Protein>  (1) 
generic_title2

$$$$
DiffSBDD_87
     RDKit          3D

  0  0  0  0  0  0  0  0  0  0999 V3000
M  V30 BEGIN CTAB
M  V30 COUNTS 76 79 0 0 1
M  V30 BEGIN ATOM
M  V30 1 S 8.525722 4.796660 -19.396104 0
M  V30 2 C 12.426829 9.971058 -6.059229 0
M  V30 3 C 9.405226 6.955795 -8.230374 0
M  V30 4 C 11.575478 7.403298 -7.290927 0
M  V30 5 O 10.834921 1.588326 -20.375207 0
M  V30 6 C 7.091040 5.934820 -14.323734 0
M  V30 7 C 10.390534 6.312772 -12.415901 0
M  V30 8 C 11.536097 2.581161 -19.616353 0
M  V30 9 C 6.012908 5.783432 -18.576434 0
M  V30 10 C 8.464131 5.821059 -13.975044 0
M  V30 11 C 11.917226 6.654111 -4.775224 0
M  V30 12 C 10.294552 2.917738 -20.399359 0 CFG=2
M  V30 13 O 6.975636 3.828413 -17.377749 0
M  V30 14 C 10.974679 7.005838 -11.376976 0
M  V30 15 C 8.937439 3.064957 -19.751034 0
M  V30 16 C 6.903497 4.517809 -18.626948 0 CFG=2
M  V30 17 N 10.509740 7.963704 -8.178655 0 CFG=1 CHG=1
M  V30 18 C 8.790952 4.366446 -15.931209 0
M  V30 19 C 9.297341 5.015355 -14.803283 0
M  V30 20 C 11.175147 9.799866 -5.241916 0
M  V30 21 C 7.449809 4.487894 -16.271464 0
M  V30 22 C 6.587882 5.267342 -15.464535 0
M  V30 23 C 8.344463 7.569411 -12.115515 0
M  V30 24 C 9.850779 6.390861 -5.887497 0
M  V30 25 N 10.575562 8.590875 -5.214798 0
M  V30 26 C 11.050520 7.348951 -5.821509 0 CFG=2
M  V30 27 C 8.773608 6.790575 -6.856484 0
M  V30 28 O 10.718435 10.757785 -4.634211 0
M  V30 29 C 12.428959 8.793647 -9.701810 0
M  V30 30 C 6.295641 6.967307 -20.872568 0
M  V30 31 C 10.905703 8.624587 -9.481412 0 CFG=1
M  V30 32 C 9.055395 6.559014 -12.800989 0
M  V30 33 C 10.268682 7.955852 -10.677245 0
M  V30 34 C 5.367406 6.215744 -19.909832 0
M  V30 35 C 8.966249 8.277793 -11.068845 0
M  V30 36 H 13.264683 9.349240 -5.749493 0
M  V30 37 H 12.172981 9.879863 -7.102176 0
M  V30 38 H 12.694507 11.013373 -5.985283 0
M  V30 39 H 8.585815 7.189822 -8.873955 0
M  V30 40 H 9.786509 6.004211 -8.606168 0
M  V30 41 H 11.776755 6.390384 -7.626072 0
M  V30 42 H 12.550246 7.867661 -7.362399 0
M  V30 43 H 6.423901 6.531977 -13.722220 0
M  V30 44 H 10.974706 5.590124 -12.926093 0
M  V30 45 H 12.507994 2.854122 -20.020667 0
M  V30 46 H 11.463642 2.467355 -18.536720 0
M  V30 47 H 5.175029 5.572755 -17.913535 0
M  V30 48 H 6.553197 6.613384 -18.120993 0
M  V30 49 H 12.420904 5.801024 -5.225057 0
M  V30 50 H 12.607127 7.347778 -4.314513 0
M  V30 51 H 11.345022 6.266738 -3.931463 0
M  V30 52 H 10.418244 3.421094 -21.356423 0
M  V30 53 H 11.989102 6.790571 -11.106858 0
M  V30 54 H 8.916218 2.494263 -18.822428 0
M  V30 55 H 8.181864 2.637889 -20.410027 0
M  V30 56 H 6.388877 3.812592 -19.280700 0
M  V30 57 H 9.448882 3.769978 -16.545081 0
M  V30 58 H 10.338679 4.910793 -14.587756 0
M  V30 59 H 5.542952 5.356315 -15.719350 0
M  V30 60 H 7.333280 7.815222 -12.395429 0
M  V30 61 H 9.416862 6.150715 -4.918644 0
M  V30 62 H 10.244032 5.484599 -6.305916 0
M  V30 63 H 9.725017 8.516824 -4.679702 0
M  V30 64 H 8.277984 7.707686 -6.531946 0
M  V30 65 H 8.027163 5.991142 -6.891450 0
M  V30 66 H 12.644612 9.202156 -10.687904 0
M  V30 67 H 12.872006 9.476817 -9.002557 0
M  V30 68 H 12.984539 7.860476 -9.612848 0
M  V30 69 H 5.725327 7.409897 -21.690251 0
M  V30 70 H 6.822889 7.775627 -20.365223 0
M  V30 71 H 7.034598 6.304341 -21.320662 0
M  V30 72 H 10.456789 9.602149 -9.441959 0
M  V30 73 H 4.920232 5.358118 -20.415084 0
M  V30 74 H 4.537694 6.881787 -19.673295 0
M  V30 75 H 8.419525 9.046454 -10.542044 0
M  V30 76 H 10.116874 8.730128 -7.649759 0
M  V30 END ATOM
M  V30 BEGIN BOND
M  V30 1 1 8 5
M  V30 2 2 10 6
M  V30 3 1 12 5
M  V30 4 1 12 8
M  V30 5 2 14 7
M  V30 6 1 15 1
M  V30 7 1 15 12
M  V30 8 1 16 1
M  V30 9 1 16 9
M  V30 10 1 16 13
M  V30 11 1 17 3
M  V30 12 1 17 4
M  V30 13 1 19 10
M  V30 14 2 19 18
M  V30 15 1 20 2
M  V30 16 1 21 13
M  V30 17 1 21 18
M  V30 18 1 22 6
M  V30 19 2 22 21
M  V30 20 1 25 20
M  V30 21 1 26 4
M  V30 22 1 26 11
M  V30 23 1 26 24
M  V30 24 1 26 25 CFG=1
M  V30 25 1 27 3
M  V30 26 1 27 24
M  V30 27 2 28 20
M  V30 28 1 31 17
M  V30 29 1 31 29
M  V30 30 1 32 7
M  V30 31 1 32 10
M  V30 32 2 32 23
M  V30 33 1 33 14
M  V30 34 1 33 31
M  V30 35 1 34 9
M  V30 36 1 34 30
M  V30 37 1 35 23
M  V30 38 2 35 33
M  V30 39 1 36 2
M  V30 40 1 37 2
M  V30 41 1 38 2
M  V30 42 1 39 3
M  V30 43 1 40 3
M  V30 44 1 41 4
M  V30 45 1 42 4
M  V30 46 1 43 6
M  V30 47 1 44 7
M  V30 48 1 45 8
M  V30 49 1 46 8
M  V30 50 1 47 9
M  V30 51 1 48 9
M  V30 52 1 49 11
M  V30 53 1 50 11
M  V30 54 1 51 11
M  V30 55 1 12 52 CFG=3
M  V30 56 1 53 14
M  V30 57 1 54 15
M  V30 58 1 55 15
M  V30 59 1 16 56 CFG=3
M  V30 60 1 57 18
M  V30 61 1 58 19
M  V30 62 1 59 22
M  V30 63 1 60 23
M  V30 64 1 61 24
M  V30 65 1 62 24
M  V30 66 1 63 25
M  V30 67 1 64 27
M  V30 68 1 65 27
M  V30 69 1 66 29
M  V30 70 1 67 29
M  V30 71 1 68 29
M  V30 72 1 69 30
M  V30 73 1 70 30
M  V30 74 1 71 30
M  V30 75 1 31 72 CFG=1
M  V30 76 1 73 34
M  V30 77 1 74 34
M  V30 78 1 75 35
M  V30 79 1 17 76 CFG=1
M  V30 END BOND
M  V30 END CTAB
M  END
>  <i_epik_Tot_Q>  (1) 
1

>  <i_epik_Tot_abs_Q>  (1) 
1

>  <i_i_glide_confnum>  (1) 
1215

>  <i_i_glide_lignum>  (1) 
158

>  <i_i_glide_posenum>  (1) 
229

>  <i_i_glide_rotatable_bonds>  (1) 
12

>  <i_lp_mmshare_version>  (1) 
72125

>  <i_m_source_file_index>  (1) 
88

>  <i_f3d_flags>  (1) 
0

>  <num_sample>  (1) 
100

>  <b_lp_Chiralities_Consistent>  (1) 
1

>  <r_epik_Charging_Adjusted_Penalty>  (1) 
0.24591797925462006

>  <r_epik_Ionization_Penalty>  (1) 
0.12295908446121387

>  <r_epik_Ionization_Penalty_Charging>  (1) 
0.12295898962731001

>  <r_epik_Ionization_Penalty_Neutral>  (1) 
9.4833903855356945e-08

>  <r_epik_State_Penalty>  (1) 
0.12295898962731003

>  <r_glide_ring_energy>  (1) 
0

>  <r_i_docking_score>  (1) 
0.43422184243705353

>  <r_i_glide_ecoul>  (1) 
-1.8839006885257019

>  <r_i_glide_eff_state_penalty>  (1) 
0.12295898962731003

>  <r_i_glide_einternal>  (1) 
17.107887709471164

>  <r_i_glide_emodel>  (1) 
10.665562011685878

>  <r_i_glide_emodel_strain>  (1) 
1.1713156095444504

>  <r_i_glide_energy>  (1) 
-0.16199052327548835

>  <r_i_glide_erotb>  (1) 
0.74116783978336576

>  <r_i_glide_esite>  (1) 
-0.013383607773815826

>  <r_i_glide_evdw>  (1) 
1.7219101652502136

>  <r_i_glide_gscore>  (1) 
0.31126285280974353

>  <r_i_glide_gscore_strain>  (1) 
0

>  <r_i_glide_hbond>  (1) 
0

>  <r_i_glide_ligand_efficiency>  (1) 
0.012406338355344387

>  <r_i_glide_ligand_efficiency_ln>  (1) 
0.095321331449496463

>  <r_i_glide_ligand_efficiency_sa>  (1) 
0.040581955426967548

>  <r_i_glide_lipo>  (1) 
-2.3489107545971377

>  <r_i_glide_metal>  (1) 
-0

>  <r_i_glide_rewards>  (1) 
2.1288789704136759

>  <r_lp_Energy>  (1) 
38.466504999999998

>  <r_lp_tautomer_probability>  (1) 
1

>  <s_epik_Chemistry_Notes>  (1) 
This compound contains an acetal/aminal-like group ( X-CH(R)-Y where X, Y are N, S, or O) that may be acid/base labile, releasing an aldehyde.

>  <s_epik_cmdline>  (1) 
J2VwaWtfcHl0aG9uJywgJy1waHQnLCAnMS4wJywgJy1waCcsICc3LjQnLCAnLXRuJywgJzgnLCAnLW1hJywgJzUwMCcsICctaW1hZScsICc8aW5maWxlLm1hZT4nLCAnLW9tYWUnLCAnPG91dGZpbGUubWFlPic=

>  <s_epik_input>  (1) 
W0NIMl0xT1tDQEhdMVtDSDJdU1tDQEhdKFtDSDJdW0NIMl1bQ0gzXSlPYyhbY0hdW2NIXTIpW2NIXVtjSF1jMi1jM1tjSF1bY0hdYyhbY0hdW2NIXTMpW0NASF0oW0NIM10pTihbQ0gyXVtDSDJdW0NIMl00KVtDSDJdW0NAQF00KFtDSDNdKVtOSF1DKD1PKVtDSDNd

>  <s_glide_docking_method>  (1) 
confgen

>  <s_i_glide_gridfile>  (1) 
gpcr_drd2_6luq_protein_autoprepared_prepared

>  <s_lp_Force_Field>  (1) 
S-OPLS

>  <s_lp_Variant>  (1) 
DiffSBDD_87-2

>  <s_m_source_file>  (1) 
generated_generic_title2_ligand_DiffSBDD_2026-06-23_prepared.sdf

>  <GenAI_Model>  (1) 
DiffSBDD

>  <Protein>  (1) 
generic_title2

$$$$
DiffSBDD_86
     RDKit          3D

  0  0  0  0  0  0  0  0  0  0999 V3000
M  V30 BEGIN CTAB
M  V30 COUNTS 114 117 0 0 1
M  V30 BEGIN ATOM
M  V30 1 C 13.200040 -0.084647 -18.021934 0
M  V30 2 C 14.181089 0.656106 -18.927124 0 CFG=1
M  V30 3 C 8.797279 6.534783 -6.394347 0
M  V30 4 C 4.257940 -0.043054 -15.135873 0
M  V30 5 C 8.526225 4.378062 -18.927923 0 CFG=2
M  V30 6 C 8.775450 6.352572 -12.041519 0
M  V30 7 O 8.439341 2.020382 -18.570767 0
M  V30 8 C 7.460929 3.397502 -16.813881 0 CFG=2
M  V30 9 O 7.060491 -0.342859 -17.439062 0
M  V30 10 C 7.388084 2.063081 -17.606448 0 CFG=2
M  V30 11 C 8.515050 5.570011 -19.902472 0
M  V30 12 O 15.431654 -0.008013 -18.926805 0
M  V30 13 N 10.100278 6.276272 -8.390479 0
M  V30 14 C 12.467044 4.263376 -20.646156 0
M  V30 15 C 11.010301 0.958977 -19.035823 0 CFG=1
M  V30 16 C 9.219644 4.364772 -13.388409 0 CFG=2
M  V30 17 O 11.170310 0.097125 -21.669818 0
M  V30 18 C 5.173261 -0.409559 -12.628245 0
M  V30 19 C 8.455767 2.980110 -19.632262 0 CFG=1
M  V30 20 C 7.127497 2.810705 -20.449655 0
M  V30 21 C 10.988128 2.314432 -19.772869 0 CFG=2
M  V30 22 O 12.961980 7.990394 -11.542097 0
M  V30 23 O 7.988699 6.914423 -12.801140 0
M  V30 24 N 11.361914 7.190252 -10.088538 0 CHG=1
M  V30 25 C 9.727025 2.736272 -20.509969 0
M  V30 26 C 7.456403 4.560582 -17.825049 0
M  V30 27 C 10.362850 8.562564 -6.084483 0
M  V30 28 O 9.544619 5.326847 -12.370853 0
M  V30 29 P 11.844121 0.927200 -20.632690 0 CFG=1
M  V30 30 C 5.605539 0.924529 -13.170421 0 CFG=2
M  V30 31 C 13.689266 0.838170 -20.370714 0
M  V30 32 C 6.870984 1.376587 -20.949615 0
M  V30 33 C 5.379057 -0.202269 -14.124968 0 CFG=2
M  V30 34 F 13.375532 8.038913 -12.916151 0
M  V30 35 C 7.011502 1.337776 -12.891852 0
M  V30 36 C 9.709555 2.886191 -21.853813 0
M  V30 37 C 11.971951 3.446133 -19.440422 0
M  V30 38 C 10.175968 6.745589 -9.653427 0
M  V30 39 C 11.858487 0.637369 -17.810401 0
M  V30 40 C 8.694957 4.692018 -14.842625 0 CFG=2
M  V30 41 C 8.924462 6.787146 -10.560792 0
M  V30 42 C 8.882157 5.808842 -7.733404 0
M  V30 43 C 7.551925 0.794013 -16.758282 0
M  V30 44 C 8.617432 3.454524 -15.805861 0
M  V30 45 O 9.655547 5.486576 -15.501490 0
M  V30 46 C 7.169180 2.854640 -12.819202 0
M  V30 47 C 8.654587 3.151918 -12.644391 0
M  V30 48 C 8.975087 8.072813 -6.535333 0
M  V30 49 C 11.610344 7.589982 -11.421304 0
M  V30 50 H 13.662708 -0.209357 -17.044076 0
M  V30 51 H 13.042722 -1.093321 -18.382961 0
M  V30 52 H 14.374689 1.630241 -18.485624 0
M  V30 53 H 7.815191 6.293092 -5.987403 0
M  V30 54 H 9.512021 6.129828 -5.676072 0
M  V30 55 H 3.377138 0.390331 -14.664262 0
M  V30 56 H 4.580118 0.608503 -15.945958 0
M  V30 57 H 3.993890 -1.002105 -15.583834 0
M  V30 58 H 9.474142 4.426912 -18.404149 0
M  V30 59 H 6.575609 3.465132 -16.191235 0
M  V30 60 H 6.145747 -0.217935 -17.636364 0
M  V30 61 H 6.405417 1.998925 -18.071115 0
M  V30 62 H 7.568064 5.644716 -20.436082 0
M  V30 63 H 8.666506 6.509302 -19.369716 0
M  V30 64 H 9.311336 5.491979 -20.642344 0
M  V30 65 H 15.314280 -0.917636 -19.161627 0
M  V30 66 H 10.942208 6.249795 -7.834840 0
M  V30 67 H 13.226574 4.981273 -20.335786 0
M  V30 68 H 12.910208 3.633314 -21.416404 0
M  V30 69 H 11.657666 4.831384 -21.104786 0
M  V30 70 H 10.099386 0.364926 -19.066849 0
M  V30 71 H 10.175489 3.992565 -13.612594 0
M  V30 72 H 5.937149 -0.946789 -12.069689 0
M  V30 73 H 4.173888 -0.799481 -12.414265 0
M  V30 74 H 6.261497 3.110604 -19.865090 0
M  V30 75 H 7.085801 3.499822 -21.289949 0
M  V30 76 H 7.611688 5.507202 -17.307330 0
M  V30 77 H 6.467824 4.643178 -18.274383 0
M  V30 78 H 10.464737 9.639224 -6.214482 0
M  V30 79 H 10.548998 8.338742 -5.037342 0
M  V30 80 H 11.163224 8.096633 -6.657489 0
M  V30 81 H 4.893602 1.733802 -13.241071 0
M  V30 82 H 14.160037 1.712894 -20.815676 0
M  V30 83 H 14.010877 -0.009799 -20.976431 0
M  V30 84 H 5.916041 1.309577 -21.471864 0
M  V30 85 H 7.648024 1.037124 -21.633745 0
M  V30 86 H 6.835688 0.668287 -20.121727 0
M  V30 87 H 6.233804 -0.748774 -14.513557 0
M  V30 88 H 7.640085 0.939113 -13.686680 0
M  V30 89 H 7.356046 0.832764 -11.986618 0
M  V30 90 H 10.596417 2.710695 -22.443632 0
M  V30 91 H 8.816449 3.183543 -22.375969 0
M  V30 92 H 11.524258 4.120092 -18.716282 0
M  V30 93 H 12.834302 3.042894 -18.923924 0
M  V30 94 H 12.011716 1.550447 -17.237670 0
M  V30 95 H 11.243856 -0.004526 -17.183076 0
M  V30 96 H 7.736381 5.212908 -14.803423 0
M  V30 97 H 8.588661 7.822399 -10.545797 0
M  V30 98 H 8.140680 6.192017 -10.118107 0
M  V30 99 H 7.960533 5.992124 -8.270804 0
M  V30 100 H 8.950771 4.732208 -7.588986 0
M  V30 101 H 6.977000 0.910881 -15.847812 0
M  V30 102 H 8.589860 0.628243 -16.470649 0
M  V30 103 H 8.531126 2.567067 -15.190365 0
M  V30 104 H 9.543052 3.301550 -16.371236 0
M  V30 105 H 10.501174 5.065540 -15.436085 0
M  V30 106 H 6.593473 3.277150 -11.994518 0
M  V30 107 H 6.767822 3.302043 -13.727630 0
M  V30 108 H 9.243297 2.284746 -12.943797 0
M  V30 109 H 8.865711 3.225217 -11.579989 0
M  V30 110 H 8.798266 8.383823 -7.564781 0
M  V30 111 H 8.195933 8.597442 -5.990391 0
M  V30 112 H 11.476809 6.742018 -12.088762 0
M  V30 113 H 10.811898 8.310992 -11.584301 0
M  V30 114 H 12.148744 7.188539 -9.456028 0
M  V30 END ATOM
M  V30 BEGIN BOND
M  V30 1 1 2 1
M  V30 2 1 10 7
M  V30 3 1 10 8
M  V30 4 1 11 5
M  V30 5 1 12 2
M  V30 6 1 19 5
M  V30 7 1 19 7
M  V30 8 1 19 20 CFG=3
M  V30 9 1 21 15
M  V30 10 2 23 6
M  V30 11 1 25 19
M  V30 12 1 25 21
M  V30 13 1 26 5
M  V30 14 1 26 8
M  V30 15 1 28 6
M  V30 16 1 28 16
M  V30 17 1 29 15
M  V30 18 2 29 17
M  V30 19 1 29 21
M  V30 20 1 30 18
M  V30 21 1 31 2
M  V30 22 1 29 31 CFG=1
M  V30 23 1 32 20
M  V30 24 1 33 4
M  V30 25 1 33 18
M  V30 26 1 33 30
M  V30 27 1 34 22
M  V30 28 1 35 30
M  V30 29 2 36 25
M  V30 30 1 37 14
M  V30 31 1 21 37 CFG=1
M  V30 32 1 38 13
M  V30 33 2 38 24
M  V30 34 1 39 1
M  V30 35 1 39 15
M  V30 36 1 40 16
M  V30 37 1 41 6
M  V30 38 1 41 38
M  V30 39 1 42 3
M  V30 40 1 42 13
M  V30 41 1 43 9
M  V30 42 1 43 10
M  V30 43 1 44 8
M  V30 44 1 44 40
M  V30 45 1 45 40
M  V30 46 1 46 35
M  V30 47 1 47 16
M  V30 48 1 47 46
M  V30 49 1 48 3
M  V30 50 1 48 27
M  V30 51 1 49 22
M  V30 52 1 49 24
M  V30 53 1 50 1
M  V30 54 1 51 1
M  V30 55 1 2 52 CFG=1
M  V30 56 1 53 3
M  V30 57 1 54 3
M  V30 58 1 55 4
M  V30 59 1 56 4
M  V30 60 1 57 4
M  V30 61 1 5 58 CFG=1
M  V30 62 1 8 59 CFG=1
M  V30 63 1 60 9
M  V30 64 1 10 61 CFG=3
M  V30 65 1 62 11
M  V30 66 1 63 11
M  V30 67 1 64 11
M  V30 68 1 65 12
M  V30 69 1 66 13
M  V30 70 1 67 14
M  V30 71 1 68 14
M  V30 72 1 69 14
M  V30 73 1 15 70 CFG=3
M  V30 74 1 16 71 CFG=3
M  V30 75 1 72 18
M  V30 76 1 73 18
M  V30 77 1 74 20
M  V30 78 1 75 20
M  V30 79 1 76 26
M  V30 80 1 77 26
M  V30 81 1 78 27
M  V30 82 1 79 27
M  V30 83 1 80 27
M  V30 84 1 30 81 CFG=3
M  V30 85 1 82 31
M  V30 86 1 83 31
M  V30 87 1 84 32
M  V30 88 1 85 32
M  V30 89 1 86 32
M  V30 90 1 33 87 CFG=3
M  V30 91 1 88 35
M  V30 92 1 89 35
M  V30 93 1 90 36
M  V30 94 1 91 36
M  V30 95 1 92 37
M  V30 96 1 93 37
M  V30 97 1 94 39
M  V30 98 1 95 39
M  V30 99 1 40 96 CFG=1
M  V30 100 1 97 41
M  V30 101 1 98 41
M  V30 102 1 99 42
M  V30 103 1 100 42
M  V30 104 1 101 43
M  V30 105 1 102 43
M  V30 106 1 103 44
M  V30 107 1 104 44
M  V30 108 1 105 45
M  V30 109 1 106 46
M  V30 110 1 107 46
M  V30 111 1 108 47
M  V30 112 1 109 47
M  V30 113 1 110 48
M  V30 114 1 111 48
M  V30 115 1 112 49
M  V30 116 1 113 49
M  V30 117 1 114 24
M  V30 END BOND
M  V30 END CTAB
M  END
>  <i_epik_Tot_Q>  (1) 
1

>  <i_epik_Tot_abs_Q>  (1) 
1

>  <i_i_glide_confnum>  (1) 
13015

>  <i_i_glide_lignum>  (1) 
154

>  <i_i_glide_posenum>  (1) 
66

>  <i_i_glide_rotatable_bonds>  (1) 
25

>  <i_lp_mmshare_version>  (1) 
72125

>  <i_m_source_file_index>  (1) 
87

>  <i_f3d_flags>  (1) 
0

>  <num_sample>  (1) 
100

>  <b_lp_Chiralities_Consistent>  (1) 
1

>  <r_epik_Charging_Adjusted_Penalty>  (1) 
0.16001273794586685

>  <r_epik_Ionization_Penalty>  (1) 
0.080843455150849161

>  <r_epik_Ionization_Penalty_Charging>  (1) 
0.080842825825004877

>  <r_epik_Ionization_Penalty_Neutral>  (1) 
6.2932584428919515e-07

>  <r_epik_State_Penalty>  (1) 
0.079169912120861954

>  <r_glide_ring_energy>  (1) 
0

>  <r_i_docking_score>  (1) 
0.58491619469503253

>  <r_i_glide_ecoul>  (1) 
-5.6386058232767757

>  <r_i_glide_eff_state_penalty>  (1) 
0.079169912120861954

>  <r_i_glide_einternal>  (1) 
11.708500244599314

>  <r_i_glide_emodel>  (1) 
11.793972819248268

>  <r_i_glide_emodel_strain>  (1) 
15.608189004158291

>  <r_i_glide_energy>  (1) 
-10.78248397980277

>  <r_i_glide_erotb>  (1) 
0.57386026422142977

>  <r_i_glide_esite>  (1) 
-0.1034327637458822

>  <r_i_glide_evdw>  (1) 
-5.1438781565259939

>  <r_i_glide_gscore>  (1) 
0.50574628257417054

>  <r_i_glide_gscore_strain>  (1) 
2.9020472510395727

>  <r_i_glide_hbond>  (1) 
-0.029777553335528891

>  <r_i_glide_ligand_efficiency>  (1) 
0.011937065197857807

>  <r_i_glide_ligand_efficiency_ln>  (1) 
0.11957025382165926

>  <r_i_glide_ligand_efficiency_sa>  (1) 
0.043681370839437572

>  <r_i_glide_lipo>  (1) 
-1.6475934930305591

>  <r_i_glide_metal>  (1) 
-0

>  <r_i_glide_rewards>  (1) 
-0.086372641257046051

>  <r_lp_Energy>  (1) 
45.628945999999999

>  <s_epik_Chemistry_Notes>  (1) 
This compound has an ester and may undergo hydrolysis at high or low pH. This compound has an imine and may undergo hydrolysis. This compound contains an acetal/aminal-like group ( X-CH(R)-Y where X, Y are N, S, or O) that may be acid/base labile, releasing an aldehyde.

>  <s_epik_cmdline>  (1) 
J2VwaWtfcHl0aG9uJywgJy1waHQnLCAnMS4wJywgJy1waCcsICc3LjQnLCAnLXRuJywgJzgnLCAnLW1hJywgJzUwMCcsICctaW1hZScsICc8aW5maWxlLm1hZT4nLCAnLW9tYWUnLCAnPG91dGZpbGUubWFlPic=

>  <s_epik_input>  (1) 
W09IXVtDQEBIXShbQ0gyXTEpW0NIMl1bQ0gyXVtDQEhdKFAxMj1PKVtDQEBdMihbQ0gyXVtDSDNdKUMoPVtDSDJdKVtDQF0zKFtDSDJdW0NIM10pW0NAQEhdKFtDSDNdKVtDSDJdW0NAQEhdKFtDQEBIXShPMylbQ0gyXVtPSF0pW0NIMl1bQ0BIXShbT0hdKVtDQEhdKFtDSDJdW0NIMl1bQ0gyXVtDQEBIXTRbQ0gyXVtDQEhdNFtDSDNdKU9DKD1PKVtDSDJdQyg9TlxbQ0gyXU9GKS9bTkhdW0NIMl1bQ0gyXVtDSDJdW0NIM10=

>  <s_glide_docking_method>  (1) 
confgen

>  <s_i_glide_gridfile>  (1) 
gpcr_drd2_6luq_protein_autoprepared_prepared

>  <s_lp_Force_Field>  (1) 
S-OPLS

>  <s_lp_Variant>  (1) 
DiffSBDD_86-2

>  <s_m_source_file>  (1) 
generated_generic_title2_ligand_DiffSBDD_2026-06-23_prepared.sdf

>  <GenAI_Model>  (1) 
DiffSBDD

>  <Protein>  (1) 
generic_title2

$$$$
DiffSBDD_87
     RDKit          3D

  0  0  0  0  0  0  0  0  0  0999 V3000
M  V30 BEGIN CTAB
M  V30 COUNTS 75 78 0 0 1
M  V30 BEGIN ATOM
M  V30 1 S 6.561514 4.825714 -20.417674 0
M  V30 2 C 13.790542 9.592474 -6.749692 0
M  V30 3 C 8.976116 7.655432 -8.408558 0
M  V30 4 C 10.752916 6.427832 -7.444143 0
M  V30 5 O 6.637922 1.624249 -19.735998 0
M  V30 6 C 6.362913 7.188631 -15.218476 0
M  V30 7 C 8.347742 4.751934 -13.076878 0
M  V30 8 C 6.912419 1.721412 -21.136708 0
M  V30 9 C 6.539208 7.605964 -20.026658 0
M  V30 10 C 7.214678 6.088693 -14.923834 0
M  V30 11 C 10.805838 6.613880 -4.959450 0
M  V30 12 C 5.596343 2.188855 -20.549046 0 CFG=2
M  V30 13 O 5.093859 6.302710 -18.574014 0
M  V30 14 C 8.923858 4.674536 -11.784839 0
M  V30 15 C 5.227499 3.620559 -20.190200 0
M  V30 16 C 5.701881 6.327215 -19.867060 0 CFG=2
M  V30 17 N 10.114320 6.849306 -8.716615 0
M  V30 18 C 6.686914 5.167872 -17.136776 0
M  V30 19 C 7.368728 5.080437 -15.905319 0
M  V30 20 C 12.572969 8.793853 -7.171766 0
M  V30 21 C 5.825758 6.250151 -17.403349 0
M  V30 22 C 5.670794 7.260505 -16.444215 0
M  V30 23 C 8.101526 7.158056 -12.819566 0
M  V30 24 C 9.442579 8.291257 -6.209980 0
M  V30 25 N 11.775402 8.390930 -6.154014 0
M  V30 26 C 10.691502 7.443234 -6.255518 0 CFG=2
M  V30 27 C 9.234915 8.807312 -7.563682 0
M  V30 28 O 12.391152 8.519064 -8.354338 0
M  V30 29 C 8.889007 4.674069 -8.698745 0
M  V30 30 C 8.042508 7.417185 -22.136857 0
M  V30 31 C 9.644536 5.720451 -9.537142 0 CFG=1
M  V30 32 C 7.900621 5.997149 -13.599075 0
M  V30 33 C 9.083651 5.838595 -11.003860 0
M  V30 34 C 6.820751 8.064737 -21.470842 0
M  V30 35 C 8.705896 7.086576 -11.557131 0
M  V30 36 H 14.311830 9.194682 -5.886757 0
M  V30 37 H 14.518160 9.593389 -7.563763 0
M  V30 38 H 13.502849 10.580056 -6.382951 0
M  V30 39 H 8.759054 8.261321 -9.256579 0
M  V30 40 H 8.172942 7.067650 -7.984555 0
M  V30 41 H 10.281502 5.547909 -7.028042 0
M  V30 42 H 11.774698 6.111700 -7.621732 0
M  V30 43 H 6.216290 7.961829 -14.486930 0
M  V30 44 H 8.215733 3.847087 -13.651653 0
M  V30 45 H 6.937713 0.765654 -21.656715 0
M  V30 46 H 7.690934 2.435556 -21.393441 0
M  V30 47 H 5.947115 8.402495 -19.579210 0
M  V30 48 H 7.462430 7.534504 -19.448911 0
M  V30 49 H 9.913485 6.007759 -4.780441 0
M  V30 50 H 11.654096 5.933405 -5.024163 0
M  V30 51 H 10.967433 7.228659 -4.073757 0
M  V30 52 H 4.740810 1.526653 -20.668637 0
M  V30 53 H 9.227285 3.717187 -11.390101 0
M  V30 54 H 4.924962 3.638150 -19.146202 0
M  V30 55 H 4.368982 3.933040 -20.783393 0
M  V30 56 H 4.851368 6.433665 -20.544269 0
M  V30 57 H 6.809283 4.378587 -17.859384 0
M  V30 58 H 8.013398 4.232244 -15.715318 0
M  V30 59 H 5.006925 8.090559 -16.639567 0
M  V30 60 H 7.794273 8.120010 -13.199900 0
M  V30 61 H 9.562405 9.162987 -5.583467 0
M  V30 62 H 8.558250 7.722093 -5.965898 0
M  V30 63 H 12.022288 8.691376 -5.224331 0
M  V30 64 H 10.129762 9.189577 -8.004774 0
M  V30 65 H 8.414270 9.515978 -7.605595 0
M  V30 66 H 9.677649 3.948257 -8.414567 0
M  V30 67 H 8.429136 5.039633 -7.777129 0
M  V30 68 H 8.072004 4.233239 -9.269412 0
M  V30 69 H 8.269251 7.914212 -23.081265 0
M  V30 70 H 8.923551 7.497652 -21.499429 0
M  V30 71 H 7.874396 6.365583 -22.358440 0
M  V30 72 H 10.574879 5.243308 -9.608523 0
M  V30 73 H 5.939442 7.918170 -22.098142 0
M  V30 74 H 6.997558 9.141432 -21.447755 0
M  V30 75 H 8.849100 7.989173 -11.021128 0
M  V30 END ATOM
M  V30 BEGIN BOND
M  V30 1 1 8 5
M  V30 2 2 10 6
M  V30 3 1 12 5
M  V30 4 1 12 8
M  V30 5 2 14 7
M  V30 6 1 15 1
M  V30 7 1 15 12
M  V30 8 1 16 1
M  V30 9 1 16 9
M  V30 10 1 16 13
M  V30 11 1 17 3
M  V30 12 1 17 4
M  V30 13 1 19 10
M  V30 14 2 19 18
M  V30 15 1 20 2
M  V30 16 1 21 13
M  V30 17 1 21 18
M  V30 18 1 22 6
M  V30 19 2 22 21
M  V30 20 1 25 20
M  V30 21 1 26 4
M  V30 22 1 26 11
M  V30 23 1 26 24
M  V30 24 1 26 25 CFG=3
M  V30 25 1 27 3
M  V30 26 1 27 24
M  V30 27 2 28 20
M  V30 28 1 31 17
M  V30 29 1 31 29
M  V30 30 1 32 7
M  V30 31 1 32 10
M  V30 32 2 32 23
M  V30 33 1 33 14
M  V30 34 1 33 31
M  V30 35 1 34 9
M  V30 36 1 34 30
M  V30 37 1 35 23
M  V30 38 2 35 33
M  V30 39 1 36 2
M  V30 40 1 37 2
M  V30 41 1 38 2
M  V30 42 1 39 3
M  V30 43 1 40 3
M  V30 44 1 41 4
M  V30 45 1 42 4
M  V30 46 1 43 6
M  V30 47 1 44 7
M  V30 48 1 45 8
M  V30 49 1 46 8
M  V30 50 1 47 9
M  V30 51 1 48 9
M  V30 52 1 49 11
M  V30 53 1 50 11
M  V30 54 1 51 11
M  V30 55 1 12 52 CFG=3
M  V30 56 1 53 14
M  V30 57 1 54 15
M  V30 58 1 55 15
M  V30 59 1 16 56 CFG=3
M  V30 60 1 57 18
M  V30 61 1 58 19
M  V30 62 1 59 22
M  V30 63 1 60 23
M  V30 64 1 61 24
M  V30 65 1 62 24
M  V30 66 1 63 25
M  V30 67 1 64 27
M  V30 68 1 65 27
M  V30 69 1 66 29
M  V30 70 1 67 29
M  V30 71 1 68 29
M  V30 72 1 69 30
M  V30 73 1 70 30
M  V30 74 1 71 30
M  V30 75 1 31 72 CFG=3
M  V30 76 1 73 34
M  V30 77 1 74 34
M  V30 78 1 75 35
M  V30 END BOND
M  V30 END CTAB
M  END
>  <i_epik_Tot_Q>  (1) 
0

>  <i_epik_Tot_abs_Q>  (1) 
0

>  <i_i_glide_confnum>  (1) 
1248

>  <i_i_glide_lignum>  (1) 
159

>  <i_i_glide_posenum>  (1) 
127

>  <i_i_glide_rotatable_bonds>  (1) 
12

>  <i_lp_mmshare_version>  (1) 
72125

>  <i_m_source_file_index>  (1) 
88

>  <i_f3d_flags>  (1) 
0

>  <num_sample>  (1) 
100

>  <b_lp_Chiralities_Consistent>  (1) 
1

>  <r_epik_Charging_Adjusted_Penalty>  (1) 
0.99208626642465525

>  <r_epik_Ionization_Penalty>  (1) 
0.99208788217497046

>  <r_epik_Ionization_Penalty_Charging>  (1) 
0

>  <r_epik_Ionization_Penalty_Neutral>  (1) 
0.99208788217497046

>  <r_epik_State_Penalty>  (1) 
0.99208626642465525

>  <r_glide_ring_energy>  (1) 
0

>  <r_i_docking_score>  (1) 
0.9392993513877963

>  <r_i_glide_ecoul>  (1) 
-0.5960574642216645

>  <r_i_glide_eff_state_penalty>  (1) 
0.99208626642465525

>  <r_i_glide_einternal>  (1) 
20.576388440584964

>  <r_i_glide_emodel>  (1) 
15.320257701648671

>  <r_i_glide_emodel_strain>  (1) 
12.187717903817585

>  <r_i_glide_energy>  (1) 
-7.0553260069464789

>  <r_i_glide_erotb>  (1) 
0.7439263771496134

>  <r_i_glide_esite>  (1) 
0

>  <r_i_glide_evdw>  (1) 
-6.4592685427248142

>  <r_i_glide_gscore>  (1) 
-0.05278691503685895

>  <r_i_glide_gscore_strain>  (1) 
2.0469294759543963

>  <r_i_glide_hbond>  (1) 
0

>  <r_i_glide_ligand_efficiency>  (1) 
0.02683712432536561

>  <r_i_glide_ligand_efficiency_ln>  (1) 
0.20619705425553886

>  <r_i_glide_ligand_efficiency_sa>  (1) 
0.087786013243046135

>  <r_i_glide_lipo>  (1) 
-2.967614451366607

>  <r_i_glide_metal>  (1) 
-0

>  <r_i_glide_rewards>  (1) 
0.53634372999522906

>  <r_lp_Energy>  (1) 
42.125440999999995

>  <r_lp_tautomer_probability>  (1) 
1

>  <s_epik_Chemistry_Notes>  (1) 
This compound contains an acetal/aminal-like group ( X-CH(R)-Y where X, Y are N, S, or O) that may be acid/base labile, releasing an aldehyde.

>  <s_epik_cmdline>  (1) 
J2VwaWtfcHl0aG9uJywgJy1waHQnLCAnMS4wJywgJy1waCcsICc3LjQnLCAnLXRuJywgJzgnLCAnLW1hJywgJzUwMCcsICctaW1hZScsICc8aW5maWxlLm1hZT4nLCAnLW9tYWUnLCAnPG91dGZpbGUubWFlPic=

>  <s_epik_input>  (1) 
W0NIMl0xT1tDQEhdMVtDSDJdU1tDQEhdKFtDSDJdW0NIMl1bQ0gzXSlPYyhbY0hdW2NIXTIpW2NIXVtjSF1jMi1jM1tjSF1bY0hdYyhbY0hdW2NIXTMpW0NASF0oW0NIM10pTihbQ0gyXVtDSDJdW0NIMl00KVtDSDJdW0NAQF00KFtDSDNdKVtOSF1DKD1PKVtDSDNd

>  <s_glide_docking_method>  (1) 
confgen

>  <s_i_glide_gridfile>  (1) 
gpcr_drd2_6luq_protein_autoprepared_prepared

>  <s_lp_Force_Field>  (1) 
S-OPLS

>  <s_lp_Variant>  (1) 
DiffSBDD_87-3

>  <s_m_source_file>  (1) 
generated_generic_title2_ligand_DiffSBDD_2026-06-23_prepared.sdf

>  <GenAI_Model>  (1) 
DiffSBDD

>  <Protein>  (1) 
generic_title2

$$$$
DiffSBDD_86
     RDKit          3D

  0  0  0  0  0  0  0  0  0  0999 V3000
M  V30 BEGIN CTAB
M  V30 COUNTS 113 116 0 0 1
M  V30 BEGIN ATOM
M  V30 1 C 13.761374 0.189395 -19.304786 0
M  V30 2 C 14.581679 0.781418 -20.448501 0 CFG=1
M  V30 3 C 9.368527 7.729890 -7.132925 0
M  V30 4 C 3.375556 7.040830 -17.772808 0
M  V30 5 C 9.025581 4.643667 -19.925323 0 CFG=2
M  V30 6 C 8.503244 6.798999 -12.493108 0
M  V30 7 O 8.854571 2.298243 -19.462771 0
M  V30 8 C 8.124049 3.802253 -17.675179 0 CFG=2
M  V30 9 O 7.169008 1.214296 -16.427128 0
M  V30 10 C 7.916513 2.447403 -18.400533 0 CFG=2
M  V30 11 C 8.937399 5.790511 -20.954426 0
M  V30 12 O 15.768695 0.034405 -20.629533 0
M  V30 13 N 9.375745 7.783436 -9.618626 0
M  V30 14 C 12.567540 4.568824 -19.772355 0
M  V30 15 C 11.499643 1.334929 -19.919119 0 CFG=1
M  V30 16 C 8.904798 4.921068 -14.161516 0 CFG=2
M  V30 17 O 11.039675 0.023631 -22.321870 0
M  V30 18 C 5.872929 7.370072 -17.262330 0
M  V30 19 C 8.823784 3.222147 -20.554073 0 CFG=1
M  V30 20 C 7.424134 3.085814 -21.249927 0
M  V30 21 C 11.339628 2.549155 -20.874159 0 CFG=2
M  V30 22 O 12.959621 7.959578 -9.173029 0
M  V30 23 O 7.743206 7.718991 -12.198019 0
M  V30 24 N 11.442301 7.530506 -10.887816 0
M  V30 25 C 10.004883 2.892521 -21.522193 0
M  V30 26 C 8.091612 4.923964 -18.731403 0
M  V30 27 C 8.811502 5.304203 -7.801786 0
M  V30 28 O 8.571770 6.237624 -13.718763 0
M  V30 29 P 11.951869 0.975269 -21.626547 0 CFG=1
M  V30 30 C 5.433039 6.148290 -16.472664 0 CFG=2
M  V30 31 C 13.805662 0.805579 -21.772423 0
M  V30 32 C 7.045833 1.642162 -21.626702 0
M  V30 33 C 4.468503 7.280892 -16.782556 0 CFG=2
M  V30 34 F 13.942912 8.795282 -8.554047 0
M  V30 35 C 6.057800 5.962181 -15.101604 0
M  V30 36 C 9.857853 2.907803 -22.867866 0
M  V30 37 C 12.400634 3.660286 -21.002295 0
M  V30 38 C 10.196632 7.250378 -10.627467 0
M  V30 39 C 12.616647 1.125056 -18.893498 0
M  V30 40 C 9.385337 5.058488 -15.666480 0 CFG=2
M  V30 41 C 9.479641 6.211673 -11.490968 0
M  V30 42 C 9.868040 8.418719 -8.410667 0
M  V30 43 C 8.040868 1.180909 -17.539559 0
M  V30 44 C 9.304098 3.848179 -16.655188 0
M  V30 45 O 10.759855 5.376717 -15.604913 0
M  V30 46 C 6.294123 4.494709 -14.614425 0
M  V30 47 C 7.623491 4.087407 -13.911515 0
M  V30 48 C 9.732394 6.242165 -7.000504 0
M  V30 49 C 12.281198 8.527796 -10.265849 0
M  V30 50 H 14.407430 0.038530 -18.438570 0
M  V30 51 H 13.381388 -0.796325 -19.575846 0
M  V30 52 H 14.875806 1.796778 -20.178790 0
M  V30 53 H 9.787756 8.262114 -6.280314 0
M  V30 54 H 8.296754 7.853643 -7.017899 0
M  V30 55 H 3.715476 6.412946 -18.597558 0
M  V30 56 H 2.576687 6.519430 -17.252855 0
M  V30 57 H 3.004984 7.989566 -18.160920 0
M  V30 58 H 10.023295 4.661732 -19.501302 0
M  V30 59 H 7.230602 3.933270 -17.095869 0
M  V30 60 H 6.285917 1.058248 -16.724955 0
M  V30 61 H 6.902579 2.422444 -18.795600 0
M  V30 62 H 7.926510 5.898440 -21.347437 0
M  V30 63 H 9.222621 6.746511 -20.513032 0
M  V30 64 H 9.603670 5.626123 -21.798706 0
M  V30 65 H 16.197042 -0.072834 -19.793928 0
M  V30 66 H 8.355321 7.590238 -9.578901 0
M  V30 67 H 13.613197 4.862309 -19.663174 0
M  V30 68 H 11.992360 5.486768 -19.882015 0
M  V30 69 H 12.256715 4.096361 -18.842222 0
M  V30 70 H 10.610164 0.770624 -19.649275 0
M  V30 71 H 9.713165 4.494888 -13.565651 0
M  V30 72 H 6.503801 8.103063 -16.769596 0
M  V30 73 H 6.033281 7.267950 -18.332578 0
M  V30 74 H 6.626194 3.480376 -20.625678 0
M  V30 75 H 7.355648 3.720120 -22.130386 0
M  V30 76 H 8.321599 5.888119 -18.276696 0
M  V30 77 H 7.072202 5.020175 -19.106256 0
M  V30 78 H 8.960681 4.250590 -7.584255 0
M  V30 79 H 7.771372 5.537388 -7.597145 0
M  V30 80 H 8.964590 5.395789 -8.867495 0
M  V30 81 H 5.404651 5.264806 -17.101858 0
M  V30 82 H 14.200043 1.562009 -22.451101 0
M  V30 83 H 13.956598 -0.144687 -22.284957 0
M  V30 84 H 6.062175 1.613190 -22.094613 0
M  V30 85 H 7.755268 1.195689 -22.321714 0
M  V30 86 H 7.008888 0.997255 -20.749229 0
M  V30 87 H 4.200945 7.983707 -15.988543 0
M  V30 88 H 5.491080 6.517304 -14.352370 0
M  V30 89 H 6.971607 6.514678 -15.230443 0
M  V30 90 H 10.687167 2.675432 -23.518364 0
M  V30 91 H 8.917472 3.152663 -23.332781 0
M  V30 92 H 13.374509 3.233921 -21.218341 0
M  V30 93 H 12.168836 4.277591 -21.872151 0
M  V30 94 H 13.034909 2.084483 -18.600383 0
M  V30 95 H 12.158635 0.727111 -17.988144 0
M  V30 96 H 8.899860 5.903743 -16.141027 0
M  V30 97 H 8.921086 5.512183 -10.879071 0
M  V30 98 H 10.236981 5.623080 -12.002323 0
M  V30 99 H 10.934081 8.514562 -8.311736 0
M  V30 100 H 9.432675 9.404067 -8.449686 0
M  V30 101 H 9.069365 1.052990 -17.209156 0
M  V30 102 H 7.798135 0.299563 -18.134993 0
M  V30 103 H 9.283218 2.944890 -16.061790 0
M  V30 104 H 10.225519 3.779450 -17.233329 0
M  V30 105 H 11.189067 4.784628 -14.990984 0
M  V30 106 H 6.177447 3.788250 -15.418829 0
M  V30 107 H 5.466567 4.233107 -13.952696 0
M  V30 108 H 7.847618 3.051865 -14.178073 0
M  V30 109 H 7.442547 4.052627 -12.835444 0
M  V30 110 H 10.774266 6.067625 -7.263683 0
M  V30 111 H 9.644138 5.996495 -5.943699 0
M  V30 112 H 13.030603 8.841249 -10.991347 0
M  V30 113 H 11.751360 9.439225 -9.996663 0
M  V30 END ATOM
M  V30 BEGIN BOND
M  V30 1 1 2 1
M  V30 2 1 10 7
M  V30 3 1 10 8
M  V30 4 1 11 5
M  V30 5 1 12 2
M  V30 6 1 19 5
M  V30 7 1 19 7
M  V30 8 1 19 20 CFG=3
M  V30 9 1 21 15
M  V30 10 2 23 6
M  V30 11 1 25 19
M  V30 12 1 25 21
M  V30 13 1 26 5
M  V30 14 1 26 8
M  V30 15 1 28 6
M  V30 16 1 28 16
M  V30 17 1 29 15
M  V30 18 2 29 17
M  V30 19 1 29 21
M  V30 20 1 30 18
M  V30 21 1 31 2
M  V30 22 1 29 31 CFG=1
M  V30 23 1 32 20
M  V30 24 1 33 4
M  V30 25 1 33 18
M  V30 26 1 33 30
M  V30 27 1 34 22
M  V30 28 1 35 30
M  V30 29 2 36 25
M  V30 30 1 37 14
M  V30 31 1 21 37 CFG=1
M  V30 32 1 38 13
M  V30 33 2 38 24
M  V30 34 1 39 1
M  V30 35 1 39 15
M  V30 36 1 40 16
M  V30 37 1 41 6
M  V30 38 1 41 38
M  V30 39 1 42 3
M  V30 40 1 42 13
M  V30 41 1 43 9
M  V30 42 1 43 10
M  V30 43 1 44 8
M  V30 44 1 44 40
M  V30 45 1 45 40
M  V30 46 1 46 35
M  V30 47 1 47 16
M  V30 48 1 47 46
M  V30 49 1 48 3
M  V30 50 1 48 27
M  V30 51 1 49 22
M  V30 52 1 49 24
M  V30 53 1 50 1
M  V30 54 1 51 1
M  V30 55 1 2 52 CFG=1
M  V30 56 1 53 3
M  V30 57 1 54 3
M  V30 58 1 55 4
M  V30 59 1 56 4
M  V30 60 1 57 4
M  V30 61 1 5 58 CFG=1
M  V30 62 1 8 59 CFG=1
M  V30 63 1 60 9
M  V30 64 1 10 61 CFG=3
M  V30 65 1 62 11
M  V30 66 1 63 11
M  V30 67 1 64 11
M  V30 68 1 65 12
M  V30 69 1 66 13
M  V30 70 1 67 14
M  V30 71 1 68 14
M  V30 72 1 69 14
M  V30 73 1 15 70 CFG=1
M  V30 74 1 16 71 CFG=1
M  V30 75 1 72 18
M  V30 76 1 73 18
M  V30 77 1 74 20
M  V30 78 1 75 20
M  V30 79 1 76 26
M  V30 80 1 77 26
M  V30 81 1 78 27
M  V30 82 1 79 27
M  V30 83 1 80 27
M  V30 84 1 30 81 CFG=3
M  V30 85 1 82 31
M  V30 86 1 83 31
M  V30 87 1 84 32
M  V30 88 1 85 32
M  V30 89 1 86 32
M  V30 90 1 33 87 CFG=1
M  V30 91 1 88 35
M  V30 92 1 89 35
M  V30 93 1 90 36
M  V30 94 1 91 36
M  V30 95 1 92 37
M  V30 96 1 93 37
M  V30 97 1 94 39
M  V30 98 1 95 39
M  V30 99 1 40 96 CFG=3
M  V30 100 1 97 41
M  V30 101 1 98 41
M  V30 102 1 99 42
M  V30 103 1 100 42
M  V30 104 1 101 43
M  V30 105 1 102 43
M  V30 106 1 103 44
M  V30 107 1 104 44
M  V30 108 1 105 45
M  V30 109 1 106 46
M  V30 110 1 107 46
M  V30 111 1 108 47
M  V30 112 1 109 47
M  V30 113 1 110 48
M  V30 114 1 111 48
M  V30 115 1 112 49
M  V30 116 1 113 49
M  V30 END BOND
M  V30 END CTAB
M  END
>  <i_epik_Tot_Q>  (1) 
0

>  <i_epik_Tot_abs_Q>  (1) 
0

>  <i_i_glide_confnum>  (1) 
12451

>  <i_i_glide_lignum>  (1) 
155

>  <i_i_glide_posenum>  (1) 
165

>  <i_i_glide_rotatable_bonds>  (1) 
25

>  <i_lp_mmshare_version>  (1) 
72125

>  <i_m_source_file_index>  (1) 
87

>  <i_f3d_flags>  (1) 
0

>  <num_sample>  (1) 
100

>  <b_lp_Chiralities_Consistent>  (1) 
1

>  <r_epik_Charging_Adjusted_Penalty>  (1) 
1.2316584192148512

>  <r_epik_Ionization_Penalty>  (1) 
1.2316590375040075

>  <r_epik_Ionization_Penalty_Charging>  (1) 
0

>  <r_epik_Ionization_Penalty_Neutral>  (1) 
1.2316590375040075

>  <r_epik_State_Penalty>  (1) 
1.2316584192148512

>  <r_glide_ring_energy>  (1) 
0

>  <r_i_docking_score>  (1) 
1.3201544420507791

>  <r_i_glide_ecoul>  (1) 
-13.451427587309485

>  <r_i_glide_eff_state_penalty>  (1) 
1.2316584192148512

>  <r_i_glide_einternal>  (1) 
33.517703836782339

>  <r_i_glide_emodel>  (1) 
-7.3960266754431423

>  <r_i_glide_emodel_strain>  (1) 
9.5198452794144686

>  <r_i_glide_energy>  (1) 
-33.868594893539388

>  <r_i_glide_erotb>  (1) 
0.57622798544967491

>  <r_i_glide_esite>  (1) 
-0.17095489982330753

>  <r_i_glide_evdw>  (1) 
-20.417167306229903

>  <r_i_glide_gscore>  (1) 
0.088496022835927945

>  <r_i_glide_gscore_strain>  (1) 
1.3799613198536171

>  <r_i_glide_hbond>  (1) 
-0.42922145276293472

>  <r_i_glide_ligand_efficiency>  (1) 
0.02694192738879141

>  <r_i_glide_ligand_efficiency_ln>  (1) 
0.2698697747668008

>  <r_i_glide_ligand_efficiency_sa>  (1) 
0.098588748732828704

>  <r_i_glide_lipo>  (1) 
-1.6019924103372174

>  <r_i_glide_metal>  (1) 
-0

>  <r_i_glide_rewards>  (1) 
3.3730479838640131

>  <r_lp_Energy>  (1) 
45.821346999999996

>  <s_epik_Chemistry_Notes>  (1) 
This compound has an ester and may undergo hydrolysis at high or low pH. This compound has an imine and may undergo hydrolysis. This compound contains an acetal/aminal-like group ( X-CH(R)-Y where X, Y are N, S, or O) that may be acid/base labile, releasing an aldehyde.

>  <s_epik_cmdline>  (1) 
J2VwaWtfcHl0aG9uJywgJy1waHQnLCAnMS4wJywgJy1waCcsICc3LjQnLCAnLXRuJywgJzgnLCAnLW1hJywgJzUwMCcsICctaW1hZScsICc8aW5maWxlLm1hZT4nLCAnLW9tYWUnLCAnPG91dGZpbGUubWFlPic=

>  <s_epik_input>  (1) 
W09IXVtDQEBIXShbQ0gyXTEpW0NIMl1bQ0gyXVtDQEhdKFAxMj1PKVtDQEBdMihbQ0gyXVtDSDNdKUMoPVtDSDJdKVtDQF0zKFtDSDJdW0NIM10pW0NAQEhdKFtDSDNdKVtDSDJdW0NAQEhdKFtDQEBIXShPMylbQ0gyXVtPSF0pW0NIMl1bQ0BIXShbT0hdKVtDQEhdKFtDSDJdW0NIMl1bQ0gyXVtDQEBIXTRbQ0gyXVtDQEhdNFtDSDNdKU9DKD1PKVtDSDJdQyg9TlxbQ0gyXU9GKVxbTkhdW0NIMl1bQ0gyXVtDSDJdW0NIM10=

>  <s_glide_docking_method>  (1) 
confgen

>  <s_i_glide_gridfile>  (1) 
gpcr_drd2_6luq_protein_autoprepared_prepared

>  <s_lp_Force_Field>  (1) 
S-OPLS

>  <s_lp_Variant>  (1) 
DiffSBDD_86-3

>  <s_m_source_file>  (1) 
generated_generic_title2_ligand_DiffSBDD_2026-06-23_prepared.sdf

>  <GenAI_Model>  (1) 
DiffSBDD

>  <Protein>  (1) 
generic_title2

$$$$
