input/GPCR_DRD2/gpcr_drd2_6luq_complex_autopreparedcut10/gpcr_drd2_6luq_complex_autopreparedcut10_ligand.pdb
 OpenBabel05042617053D

 50 52  0  0  1  0  0  0  0  0999 V2000
   10.3900    5.9370   -7.9710 C   0  0  0  0  0  0  0  0  0  0  0  0
    8.9170    6.3680   -8.1070 C   0  0  0  0  0  0  0  0  0  0  0  0
   11.7020    6.5780   -3.7870 C   0  0  0  0  0  0  0  0  0  0  0  0
   12.1690    6.7220   -2.4920 C   0  0  0  0  0  0  0  0  0  0  0  0
   12.4690    7.9820   -2.0140 C   0  0  0  0  0  0  0  0  0  0  0  0
   12.2840    9.1080   -2.8110 C   0  0  0  0  0  0  0  0  0  0  0  0
   11.8300    8.9710   -4.1160 C   0  0  0  0  0  0  0  0  0  0  0  0
   11.5370    7.6940   -4.6170 C   0  0  0  0  0  0  0  0  0  0  0  0
   11.0690    7.5500   -6.0250 C   0  0  0  0  0  0  0  0  0  0  0  0
   10.9060    6.1100   -6.5370 C   0  0  0  0  0  0  0  0  0  0  0  0
    8.0650    4.9140  -10.0560 C   0  0  0  0  0  0  0  0  0  0  0  0
    7.3290    5.0770  -11.4020 C   0  0  0  0  0  0  0  0  0  0  0  0
    8.1130    5.8660  -12.4780 C   0  0  2  0  0  0  0  0  0  0  0  0
    8.6380    7.2020  -11.8900 C   0  0  0  0  0  0  0  0  0  0  0  0
    9.3410    7.0890  -10.5320 C   0  0  0  0  0  0  0  0  0  0  0  0
    7.2550    6.0810  -13.7360 C   0  0  0  0  0  0  0  0  0  0  0  0
    7.4750    5.3250  -14.8990 C   0  0  0  0  0  0  0  0  0  0  0  0
    6.7340    5.5620  -16.0540 C   0  0  0  0  0  0  0  0  0  0  0  0
    5.7670    6.5650  -16.0610 C   0  0  0  0  0  0  0  0  0  0  0  0
    5.5160    7.3060  -14.9120 C   0  0  0  0  0  0  0  0  0  0  0  0
    6.2330    7.0410  -13.7460 C   0  0  0  0  0  0  0  0  0  0  0  0
   12.9510    8.1220   -0.7620 F   0  0  0  0  0  0  0  0  0  0  0  0
    8.4220    6.3270   -9.5640 N   0  3  2  0  0  0  0  0  0  0  0  0
   10.8570    8.5090   -6.7700 O   0  0  0  0  0  0  0  0  0  0  0  0
    9.2770    5.1140  -12.7500 O   0  0  0  0  0  0  0  0  0  0  0  0
    4.8600    6.8810  -17.4960 Cl  0  0  0  0  0  0  0  0  0  0  0  0
   11.0380    6.5160   -8.6200 H   0  0  0  0  0  0  0  0  0  0  0  0
   10.4980    4.8930   -8.2610 H   0  0  0  0  0  0  0  0  0  0  0  0
    8.7480    7.4080   -7.7960 H   0  0  0  0  0  0  0  0  0  0  0  0
    8.2300    5.7520   -7.5150 H   0  0  0  0  0  0  0  0  0  0  0  0
   11.4790    5.5800   -4.1160 H   0  0  0  0  0  0  0  0  0  0  0  0
   12.2960    5.8640   -1.8490 H   0  0  0  0  0  0  0  0  0  0  0  0
   12.5010   10.0820   -2.4020 H   0  0  0  0  0  0  0  0  0  0  0  0
   11.7070    9.8510   -4.7300 H   0  0  0  0  0  0  0  0  0  0  0  0
   11.8640    5.6060   -6.4230 H   0  0  0  0  0  0  0  0  0  0  0  0
   10.2080    5.6300   -5.8560 H   0  0  0  0  0  0  0  0  0  0  0  0
    8.9910    4.3390  -10.1570 H   0  0  0  0  0  0  0  0  0  0  0  0
    7.4160    4.4470   -9.3090 H   0  0  0  0  0  0  0  0  0  0  0  0
    6.3500    5.5330  -11.2420 H   0  0  0  0  0  0  0  0  0  0  0  0
    7.0800    4.0900  -11.7950 H   0  0  0  0  0  0  0  0  0  0  0  0
    7.8380    7.9380  -11.8240 H   0  0  0  0  0  0  0  0  0  0  0  0
    9.3180    7.6650  -12.6020 H   0  0  0  0  0  0  0  0  0  0  0  0
    9.5410    8.0730  -10.0940 H   0  0  0  0  0  0  0  0  0  0  0  0
   10.2640    6.5140  -10.6340 H   0  0  0  0  0  0  0  0  0  0  0  0
    8.2260    4.5500  -14.9260 H   0  0  0  0  0  0  0  0  0  0  0  0
    6.9120    4.9780  -16.9490 H   0  0  0  0  0  0  0  0  0  0  0  0
    4.7590    8.0750  -14.9320 H   0  0  0  0  0  0  0  0  0  0  0  0
    5.9840    7.6000  -12.8550 H   0  0  0  0  0  0  0  0  0  0  0  0
    7.5230    6.8480   -9.5590 H   0  0  0  0  0  0  0  0  0  0  0  0
    9.8950    5.6790  -13.2240 H   0  0  0  0  0  0  0  0  0  0  0  0
  1  2  1  0  0  0  0
  1 10  1  0  0  0  0
  1 27  1  0  0  0  0
  1 28  1  0  0  0  0
  2 23  1  0  0  0  0
  2 29  1  0  0  0  0
  2 30  1  0  0  0  0
  3  4  2  0  0  0  0
  3  8  1  0  0  0  0
  3 31  1  0  0  0  0
  4  5  1  0  0  0  0
  4 32  1  0  0  0  0
  5  6  2  0  0  0  0
  5 22  1  0  0  0  0
  6  7  1  0  0  0  0
  6 33  1  0  0  0  0
  7  8  2  0  0  0  0
  7 34  1  0  0  0  0
  8  9  1  0  0  0  0
  9 10  1  0  0  0  0
  9 24  2  0  0  0  0
 10 35  1  0  0  0  0
 10 36  1  0  0  0  0
 11 12  1  0  0  0  0
 11 23  1  0  0  0  0
 11 37  1  0  0  0  0
 11 38  1  0  0  0  0
 12 13  1  0  0  0  0
 12 39  1  0  0  0  0
 12 40  1  0  0  0  0
 13 14  1  0  0  0  0
 13 16  1  0  0  0  0
 13 25  1  6  0  0  0
 14 15  1  0  0  0  0
 14 41  1  0  0  0  0
 14 42  1  0  0  0  0
 15 23  1  0  0  0  0
 15 43  1  0  0  0  0
 15 44  1  0  0  0  0
 16 17  2  0  0  0  0
 16 21  1  0  0  0  0
 17 18  1  0  0  0  0
 17 45  1  0  0  0  0
 18 19  2  0  0  0  0
 18 46  1  0  0  0  0
 19 20  1  0  0  0  0
 19 26  1  0  0  0  0
 20 21  2  0  0  0  0
 20 47  1  0  0  0  0
 21 48  1  0  0  0  0
 23 49  1  6  0  0  0
 25 50  1  0  0  0  0
M  CHG  1  23   1
M  END
$$$$
