DiffSBDD_10
     RDKit          3D

 64 66  0  0  0  0  0  0  0  0999 V2000
   39.9880   37.9360   62.1060 C   0  0  0  0  0  0  0  0  0  0  0  0
   40.3480   36.4760   62.0420 C   0  0  0  0  0  0  0  0  0  0  0  0
   39.9890   35.6090   61.1520 C   0  0  0  0  0  0  0  0  0  0  0  0
   39.9500   34.2050   61.3720 C   0  0  0  0  0  0  0  0  0  0  0  0
   40.6110   33.7100   62.4220 C   0  0  0  0  0  0  0  0  0  0  0  0
   40.6710   31.9870   62.4280 S   0  0  0  0  0  0  0  0  0  0  0  0
   39.9140   31.4310   63.5530 O   0  0  0  0  0  0  0  0  0  0  0  0
   41.9810   31.4510   62.3010 O   0  0  0  0  0  0  0  0  0  0  0  0
   39.9750   31.6240   61.0790 N   0  0  0  0  0  0  0  0  0  0  0  0
   38.6740   30.7160   61.0540 S   0  0  0  0  0  0  0  0  0  0  0  0
   37.6700   31.2740   61.7900 O   0  0  0  0  0  0  0  0  0  0  0  0
   39.0460   29.2990   60.9190 O   0  0  0  0  0  0  0  0  0  0  0  0
   38.4730   31.2970   59.4640 N   0  0  0  0  0  0  0  0  0  0  0  0
   38.3050   32.4370   58.6780 C   0  0  0  0  0  0  0  0  0  0  0  0
   38.3170   31.8840   57.2200 C   0  0  1  0  0  0  0  0  0  0  0  0
   38.7440   33.1670   56.4720 C   0  0  0  0  0  0  0  0  0  0  0  0
   38.3270   30.4470   57.1670 C   0  0  0  0  0  0  0  0  0  0  0  0
   39.4010   30.1110   55.6070 C   0  0  0  0  0  0  0  0  0  0  0  0
   38.7890   29.3800   55.1150 N   0  0  0  0  0  0  0  0  0  0  0  0
   39.4250   30.1220   54.0400 C   0  0  0  0  0  0  0  0  0  0  0  0
   39.5270   29.7830   52.5570 C   0  0  0  0  0  0  0  0  0  0  0  0
   39.0760   28.5750   52.0650 C   0  0  0  0  0  0  0  0  0  0  0  0
   39.3890   28.1010   50.8090 C   0  0  0  0  0  0  0  0  0  0  0  0
   40.0540   29.0170   50.0050 C   0  0  0  0  0  0  0  0  0  0  0  0
   40.4910   30.2230   50.4020 C   0  0  0  0  0  0  0  0  0  0  0  0
   40.1330   30.6520   51.6300 C   0  0  0  0  0  0  0  0  0  0  0  0
   38.8640   27.9060   55.4050 C   0  0  0  0  0  0  0  0  0  0  0  0
   39.7760   27.0210   56.0220 C   0  0  0  0  0  0  0  0  0  0  0  0
   39.5530   25.6880   56.0330 C   0  0  0  0  0  0  0  0  0  0  0  0
   38.3970   25.1150   55.4230 C   0  0  0  0  0  0  0  0  0  0  0  0
   37.4810   25.8760   54.8710 C   0  0  0  0  0  0  0  0  0  0  0  0
   37.7160   27.2320   54.9690 C   0  0  0  0  0  0  0  0  0  0  0  0
   36.8220   28.0120   54.4710 F   0  0  0  0  0  0  0  0  0  0  0  0
   41.1650   34.6180   63.2800 C   0  0  0  0  0  0  0  0  0  0  0  0
   42.0070   34.0850   64.6930 Cl  0  0  0  0  0  0  0  0  0  0  0  0
   41.0090   35.9470   63.0640 C   0  0  0  0  0  0  0  0  0  0  0  0
   39.9109   38.2489   63.1577 H   0  0  0  0  0  0  0  0  0  0  0  0
   40.7670   38.5281   61.6035 H   0  0  0  0  0  0  0  0  0  0  0  0
   39.0230   38.0981   61.6035 H   0  0  0  0  0  0  0  0  0  0  0  0
   39.6946   35.9823   60.1600 H   0  0  0  0  0  0  0  0  0  0  0  0
   39.3899   33.5433   60.6950 H   0  0  0  0  0  0  0  0  0  0  0  0
   37.6400   30.7600   59.1810 H   0  0  0  0  0  0  0  0  0  0  0  0
   37.3482   32.9310   58.9025 H   0  0  0  0  0  0  0  0  0  0  0  0
   39.0827   33.1949   58.8535 H   0  0  0  0  0  0  0  0  0  0  0  0
   37.7460   31.4995   56.3621 H   0  0  0  0  0  0  0  0  0  0  0  0
   39.0038   33.9477   57.2020 H   0  0  0  0  0  0  0  0  0  0  0  0
   39.6182   32.9497   55.8408 H   0  0  0  0  0  0  0  0  0  0  0  0
   37.9139   33.5169   55.8408 H   0  0  0  0  0  0  0  0  0  0  0  0
   38.7870   30.0171   58.0690 H   0  0  0  0  0  0  0  0  0  0  0  0
   37.3238   29.9982   57.1196 H   0  0  0  0  0  0  0  0  0  0  0  0
   39.5274   31.0164   54.9953 H   0  0  0  0  0  0  0  0  0  0  0  0
   40.4323   29.7891   55.8142 H   0  0  0  0  0  0  0  0  0  0  0  0
   38.9316   31.1049   54.0601 H   0  0  0  0  0  0  0  0  0  0  0  0
   40.4706   29.9172   54.3136 H   0  0  0  0  0  0  0  0  0  0  0  0
   38.4327   27.9577   52.7093 H   0  0  0  0  0  0  0  0  0  0  0  0
   39.1340   27.0851   50.4729 H   0  0  0  0  0  0  0  0  0  0  0  0
   40.2376   28.7318   48.9586 H   0  0  0  0  0  0  0  0  0  0  0  0
   41.1212   30.8419   49.7464 H   0  0  0  0  0  0  0  0  0  0  0  0
   40.3179   31.6991   51.9118 H   0  0  0  0  0  0  0  0  0  0  0  0
   40.6812   27.4228   56.5007 H   0  0  0  0  0  0  0  0  0  0  0  0
   40.2818   25.0273   56.5252 H   0  0  0  0  0  0  0  0  0  0  0  0
   38.2721   24.0221   55.4153 H   0  0  0  0  0  0  0  0  0  0  0  0
   36.5935   25.4640   54.3685 H   0  0  0  0  0  0  0  0  0  0  0  0
   41.4637   36.6379   63.7892 H   0  0  0  0  0  0  0  0  0  0  0  0
  1  2  1  0
  2  3  1  0
  3  4  2  0
  4  5  1  0
  5  6  1  0
  6  7  2  0
  6  8  2  0
  6  9  1  0
  9 10  1  0
 10 11  2  0
 10 12  2  0
 10 13  1  0
 13 14  1  0
 14 15  1  0
 15 16  1  0
 15 17  1  0
 17 18  1  0
 18 19  1  0
 19 20  1  0
 20 21  1  0
 21 22  2  0
 22 23  1  0
 23 24  2  0
 24 25  1  0
 25 26  2  0
 19 27  1  0
 27 28  2  0
 28 29  1  0
 29 30  2  0
 30 31  1  0
 31 32  2  0
 32 33  1  0
  5 34  2  0
 34 35  1  0
 34 36  1  0
 36  2  2  0
 26 21  1  0
 32 27  1  0
  1 37  1  0
  1 38  1  0
  1 39  1  0
  3 40  1  0
  4 41  1  0
 13 42  1  0
 14 43  1  0
 14 44  1  0
 15 45  1  6
 16 46  1  0
 16 47  1  0
 16 48  1  0
 17 49  1  0
 17 50  1  0
 18 51  1  0
 18 52  1  0
 20 53  1  0
 20 54  1  0
 22 55  1  0
 23 56  1  0
 24 57  1  0
 25 58  1  0
 26 59  1  0
 28 60  1  0
 29 61  1  0
 30 62  1  0
 31 63  1  0
 36 64  1  0
M  CHG  1   9  -1
M  END
>  <docking_score>  (1) 
-11.69

>  <plif_similarity>  (1) 
0.667

$$$$
DiffSBDD_11
     RDKit          3D

 46 45  0  0  0  0  0  0  0  0999 V2000
   39.9470   29.0340   51.2460 C   0  0  0  0  0  0  0  0  0  0  0  0
   38.7810   27.7630   51.5140 C   0  0  0  0  0  0  0  0  0  0  0  0
   38.9760   27.3950   52.9600 C   0  0  0  0  0  0  0  0  0  0  0  0
   37.5370   27.4360   53.6030 C   0  0  0  0  0  0  0  0  0  0  0  0
   37.7630   26.3540   54.5170 C   0  0  0  0  0  0  0  0  0  0  0  0
   37.6510   26.0730   55.9910 C   0  0  0  0  0  0  0  0  0  0  0  0
   39.1250   25.6610   56.6290 S   0  0  0  0  0  4  0  0  0  0  0  0
   39.0700   24.2580   57.2750 O   0  0  0  0  0  0  0  0  0  0  0  0
   39.2550   26.7080   57.8700 C   0  0  0  0  0  0  0  0  0  0  0  0
   39.8500   27.8760   57.2560 C   0  0  0  0  0  0  0  0  0  0  0  0
   39.7390   29.1900   56.0920 C   0  0  0  0  0  0  0  0  0  0  0  0
   39.8760   30.3990   54.7250 C   0  0  0  0  0  0  0  0  0  0  0  0
   38.7470   31.2280   54.7290 C   0  0  0  0  0  0  0  0  0  0  0  0
   38.6320   32.4570   55.7270 C   0  0  0  0  0  0  0  0  0  0  0  0
   38.3190   32.9070   56.8090 C   0  0  0  0  0  0  0  0  0  0  0  0
   38.0750   33.1710   58.1950 N   0  0  0  0  0  0  0  0  0  0  0  0
   40.2996   29.4183   52.2145 H   0  0  0  0  0  0  0  0  0  0  0  0
   40.7999   28.6352   50.6773 H   0  0  0  0  0  0  0  0  0  0  0  0
   39.4763   29.8495   50.6773 H   0  0  0  0  0  0  0  0  0  0  0  0
   37.7579   28.1262   51.3367 H   0  0  0  0  0  0  0  0  0  0  0  0
   38.9201   26.9085   50.8354 H   0  0  0  0  0  0  0  0  0  0  0  0
   39.4066   26.3864   53.0453 H   0  0  0  0  0  0  0  0  0  0  0  0
   39.6689   28.0831   53.4663 H   0  0  0  0  0  0  0  0  0  0  0  0
   37.3239   28.3875   54.1122 H   0  0  0  0  0  0  0  0  0  0  0  0
   36.6762   27.3529   52.9232 H   0  0  0  0  0  0  0  0  0  0  0  0
   37.1260   25.5651   54.0905 H   0  0  0  0  0  0  0  0  0  0  0  0
   38.8431   26.5532   54.5774 H   0  0  0  0  0  0  0  0  0  0  0  0
   37.2764   26.9724   56.5016 H   0  0  0  0  0  0  0  0  0  0  0  0
   36.9577   25.2315   56.1365 H   0  0  0  0  0  0  0  0  0  0  0  0
   38.2670   26.9442   58.2920 H   0  0  0  0  0  0  0  0  0  0  0  0
   39.8472   26.3122   58.7082 H   0  0  0  0  0  0  0  0  0  0  0  0
   40.0351   28.4690   58.1638 H   0  0  0  0  0  0  0  0  0  0  0  0
   40.2615   27.2313   56.4654 H   0  0  0  0  0  0  0  0  0  0  0  0
   38.6690   29.0141   55.9073 H   0  0  0  0  0  0  0  0  0  0  0  0
   40.7521   29.4889   56.3992 H   0  0  0  0  0  0  0  0  0  0  0  0
   40.7810   31.0090   54.8626 H   0  0  0  0  0  0  0  0  0  0  0  0
   39.9399   29.8659   53.7649 H   0  0  0  0  0  0  0  0  0  0  0  0
   38.6608   31.6420   53.7135 H   0  0  0  0  0  0  0  0  0  0  0  0
   37.9558   30.5533   55.0880 H   0  0  0  0  0  0  0  0  0  0  0  0
   39.6842   32.7774   55.7144 H   0  0  0  0  0  0  0  0  0  0  0  0
   37.5962   32.6075   55.3886 H   0  0  0  0  0  0  0  0  0  0  0  0
   38.8662   33.8486   56.6539 H   0  0  0  0  0  0  0  0  0  0  0  0
   37.5970   32.0810   56.8893 H   0  0  0  0  0  0  0  0  0  0  0  0
   38.8190   32.7400   58.7620 H   0  0  0  0  0  0  0  0  0  0  0  0
   38.0670   34.1880   58.3550 H   0  0  0  0  0  0  0  0  0  0  0  0
   37.1630   32.7740   58.4650 H   0  0  0  0  0  0  0  0  0  0  0  0
  1  2  1  0
  2  3  1  0
  3  4  1  0
  4  5  1  0
  5  6  1  0
  7  6  1  1
  7  8  2  0
  7  9  1  0
  9 10  1  0
 10 11  1  0
 11 12  1  0
 12 13  1  0
 13 14  1  0
 14 15  1  0
 15 16  1  0
  1 17  1  0
  1 18  1  0
  1 19  1  0
  2 20  1  0
  2 21  1  0
  3 22  1  0
  3 23  1  0
  4 24  1  0
  4 25  1  0
  5 26  1  0
  5 27  1  0
  6 28  1  0
  6 29  1  0
  9 30  1  0
  9 31  1  0
 10 32  1  0
 10 33  1  0
 11 34  1  0
 11 35  1  0
 12 36  1  0
 12 37  1  0
 13 38  1  0
 13 39  1  0
 14 40  1  0
 14 41  1  0
 15 42  1  0
 15 43  1  0
 16 44  1  0
 16 45  1  0
 16 46  1  0
M  CHG  1  16   1
M  END
>  <docking_score>  (2) 
-6.116

>  <plif_similarity>  (2) 
0.667

$$$$
DiffSBDD_12
     RDKit          3D

 78 80  0  0  0  0  0  0  0  0999 V2000
   37.3330   29.9060   56.9020 C   0  0  0  0  0  0  0  0  0  0  0  0
   37.4190   29.6460   58.1470 C   0  0  0  0  0  0  0  0  0  0  0  0
   38.0620   28.5090   58.8240 C   0  0  0  0  0  0  0  0  0  0  0  0
   39.5700   28.4140   58.6180 C   0  0  1  0  0  0  0  0  0  0  0  0
   40.2520   28.7330   60.0220 C   0  0  0  0  0  0  0  0  0  0  0  0
   39.8560   27.1360   57.8280 C   0  0  1  0  0  0  0  0  0  0  0  0
   39.1530   25.9600   58.5210 C   0  0  0  0  0  0  0  0  0  0  0  0
   39.3030   27.1660   56.4690 N   0  0  0  0  0  0  0  0  0  0  0  0
   39.5030   27.3210   55.2500 C   0  0  0  0  0  0  0  0  0  0  0  0
   38.5910   27.3860   54.1900 C   0  0  1  0  0  0  0  0  0  0  0  0
   37.4670   26.7060   54.1850 C   0  0  0  0  0  0  0  0  0  0  0  0
   36.9370   25.4370   54.8630 O   0  0  0  0  0  0  0  0  0  0  0  0
   39.0290   28.2230   53.0280 C   0  0  0  0  0  0  0  0  0  0  0  0
   39.1520   27.6310   51.7520 C   0  0  0  0  0  0  0  0  0  0  0  0
   39.7000   28.3870   50.6660 C   0  0  0  0  0  0  0  0  0  0  0  0
   40.0550   29.6880   50.7790 C   0  0  0  0  0  0  0  0  0  0  0  0
   40.6230   30.4710   49.6030 C   0  0  0  0  0  0  0  0  0  0  0  0
   39.9190   30.3920   52.0510 C   0  0  0  0  0  0  0  0  0  0  0  0
   39.3440   29.6150   53.1570 C   0  0  0  0  0  0  0  0  0  0  0  0
   36.6650   30.4590   59.1250 N   0  0  0  0  0  0  0  0  0  0  0  0
   37.3250   31.1210   59.9940 C   0  0  0  0  0  0  0  0  0  0  0  0
   37.3580   30.8260   61.2000 O   0  0  0  0  0  0  0  0  0  0  0  0
   38.2220   32.1470   59.3320 C   0  0  0  0  0  0  0  0  0  0  0  0
   38.0700   33.5880   59.4580 C   0  0  0  0  0  0  0  0  0  0  0  0
   38.7960   34.2860   60.6530 C   0  0  2  0  0  0  0  0  0  0  0  0
   39.5670   33.5280   61.6470 C   0  0  0  0  0  0  0  0  0  0  0  0
   38.2340   35.6590   60.9160 C   0  0  2  0  0  0  0  0  0  0  0  0
   37.6980   36.6940   59.8480 C   0  0  0  0  0  0  0  0  0  0  0  0
   37.1880   37.6830   60.8130 C   0  0  0  0  0  0  0  0  0  0  0  0
   37.2660   37.0260   62.2050 C   0  0  2  0  0  0  0  0  0  0  0  0
   36.1930   37.1620   63.2590 C   0  0  0  0  0  0  0  0  0  0  0  0
   36.6290   37.0690   64.4520 F   0  0  0  0  0  0  0  0  0  0  0  0
   35.5940   38.2600   63.0840 F   0  0  0  0  0  0  0  0  0  0  0  0
   38.5800   37.2190   62.8740 C   0  0  0  0  0  0  0  0  0  0  0  0
   39.5980   36.6380   61.6650 S   0  0  0  0  0  0  0  0  0  0  0  0
   36.9360   35.5510   61.7490 C   0  0  0  0  0  0  0  0  0  0  0  0
   36.8091   30.8124   56.5643 H   0  0  0  0  0  0  0  0  0  0  0  0
   37.7827   29.2240   56.1654 H   0  0  0  0  0  0  0  0  0  0  0  0
   37.8687   28.5990   59.9031 H   0  0  0  0  0  0  0  0  0  0  0  0
   37.6302   27.5994   58.3811 H   0  0  0  0  0  0  0  0  0  0  0  0
   40.0553   29.1580   57.9691 H   0  0  0  0  0  0  0  0  0  0  0  0
   39.5811   28.4192   60.8353 H   0  0  0  0  0  0  0  0  0  0  0  0
   41.2034   28.1865   60.1001 H   0  0  0  0  0  0  0  0  0  0  0  0
   40.4424   29.8136   60.1001 H   0  0  0  0  0  0  0  0  0  0  0  0
   40.9508   27.0394   57.7832 H   0  0  0  0  0  0  0  0  0  0  0  0
   39.2253   26.0809   59.6119 H   0  0  0  0  0  0  0  0  0  0  0  0
   38.0941   25.9391   58.2238 H   0  0  0  0  0  0  0  0  0  0  0  0
   39.6359   25.0174   58.2238 H   0  0  0  0  0  0  0  0  0  0  0  0
   40.5596   27.4226   54.9613 H   0  0  0  0  0  0  0  0  0  0  0  0
   39.1020   26.5449   53.6987 H   0  0  0  0  0  0  0  0  0  0  0  0
   36.7309   27.4634   54.4923 H   0  0  0  0  0  0  0  0  0  0  0  0
   37.6772   26.2064   53.2278 H   0  0  0  0  0  0  0  0  0  0  0  0
   36.2960   24.9830   54.2590 H   0  0  0  0  0  0  0  0  0  0  0  0
   38.8278   26.5920   51.5925 H   0  0  0  0  0  0  0  0  0  0  0  0
   39.8386   27.8874   49.6959 H   0  0  0  0  0  0  0  0  0  0  0  0
   41.2301   31.3079   49.9786 H   0  0  0  0  0  0  0  0  0  0  0  0
   41.2516   29.8080   48.9904 H   0  0  0  0  0  0  0  0  0  0  0  0
   39.7976   30.8628   48.9904 H   0  0  0  0  0  0  0  0  0  0  0  0
   40.2283   31.4405   52.1735 H   0  0  0  0  0  0  0  0  0  0  0  0
   39.1488   30.1181   54.1156 H   0  0  0  0  0  0  0  0  0  0  0  0
   35.6350   30.4900   59.1060 H   0  0  0  0  0  0  0  0  0  0  0  0
   39.2375   31.9258   59.6922 H   0  0  0  0  0  0  0  0  0  0  0  0
   37.9412   32.0076   58.2776 H   0  0  0  0  0  0  0  0  0  0  0  0
   38.4494   34.0421   58.5307 H   0  0  0  0  0  0  0  0  0  0  0  0
   36.9981   33.7419   59.6514 H   0  0  0  0  0  0  0  0  0  0  0  0
   39.8429   34.4584   60.3627 H   0  0  0  0  0  0  0  0  0  0  0  0
   39.2590   33.8308   62.6586 H   0  0  0  0  0  0  0  0  0  0  0  0
   39.3801   32.4523   61.5134 H   0  0  0  0  0  0  0  0  0  0  0  0
   40.6394   33.7332   61.5134 H   0  0  0  0  0  0  0  0  0  0  0  0
   38.4993   37.0983   59.2121 H   0  0  0  0  0  0  0  0  0  0  0  0
   36.9839   36.3135   59.1028 H   0  0  0  0  0  0  0  0  0  0  0  0
   37.8075   38.5916   60.7876 H   0  0  0  0  0  0  0  0  0  0  0  0
   36.1555   37.9752   60.5711 H   0  0  0  0  0  0  0  0  0  0  0  0
   35.5001   36.3161   63.1389 H   0  0  0  0  0  0  0  0  0  0  0  0
   38.7738   38.2781   63.0993 H   0  0  0  0  0  0  0  0  0  0  0  0
   38.6844   36.7240   63.8508 H   0  0  0  0  0  0  0  0  0  0  0  0
   36.9559   34.7980   62.5506 H   0  0  0  0  0  0  0  0  0  0  0  0
   35.9680   35.2609   61.3145 H   0  0  0  0  0  0  0  0  0  0  0  0
  1  2  2  0
  2  3  1  0
  3  4  1  0
  4  5  1  0
  4  6  1  0
  6  7  1  0
  6  8  1  0
  8  9  2  3
  9 10  1  0
 10 11  1  0
 11 12  1  0
 10 13  1  0
 13 14  1  0
 14 15  2  0
 15 16  1  0
 16 17  1  0
 16 18  2  0
 18 19  1  0
  2 20  1  0
 20 21  1  0
 21 22  2  0
 21 23  1  0
 23 24  1  0
 24 25  1  0
 25 26  1  0
 25 27  1  0
 27 28  1  0
 28 29  1  0
 29 30  1  0
 30 31  1  1
 31 32  1  0
 31 33  1  0
 30 34  1  0
 34 35  1  0
 30 36  1  0
 19 13  2  0
 27 35  1  1
 36 27  1  0
  1 37  1  0
  1 38  1  0
  3 39  1  0
  3 40  1  0
  4 41  1  6
  5 42  1  0
  5 43  1  0
  5 44  1  0
  6 45  1  6
  7 46  1  0
  7 47  1  0
  7 48  1  0
  9 49  1  0
 10 50  1  1
 11 51  1  0
 11 52  1  0
 12 53  1  0
 14 54  1  0
 15 55  1  0
 17 56  1  0
 17 57  1  0
 17 58  1  0
 18 59  1  0
 19 60  1  0
 20 61  1  0
 23 62  1  0
 23 63  1  0
 24 64  1  0
 24 65  1  0
 25 66  1  6
 26 67  1  0
 26 68  1  0
 26 69  1  0
 28 70  1  0
 28 71  1  0
 29 72  1  0
 29 73  1  0
 31 74  1  0
 34 75  1  0
 34 76  1  0
 36 77  1  0
 36 78  1  0
M  END
>  <docking_score>  (3) 
-10.211

>  <plif_similarity>  (3) 
0.444

$$$$
DiffSBDD_13
     RDKit          3D

 81 82  0  0  0  0  0  0  0  0999 V2000
   39.7770   28.3140   60.4360 C   0  0  0  0  0  0  0  0  0  0  0  0
   39.7470   29.3540   59.3030 C   0  0  0  0  0  0  0  0  0  0  0  0
   38.7190   29.1970   58.2340 C   0  0  2  0  0  0  0  0  0  0  0  0
   38.9790   28.7020   56.8320 C   0  0  2  0  0  0  0  0  0  0  0  0
   40.3930   28.3310   56.5540 C   0  0  0  0  0  0  0  0  0  0  0  0
   38.3850   29.5930   55.8850 O   0  0  0  0  0  0  0  0  0  0  0  0
   38.0970   29.3210   54.4860 C   0  0  2  0  0  0  0  0  0  0  0  0
   37.2180   28.1440   54.4700 C   0  0  0  0  0  0  0  0  0  0  0  0
   37.8570   27.1450   53.5480 C   0  0  0  0  0  0  0  0  0  0  0  0
   38.7200   27.9830   52.5920 C   0  0  0  0  0  0  0  0  0  0  0  0
   39.2580   27.7140   51.3050 C   0  0  0  0  0  0  0  0  0  0  0  0
   39.9330   28.6500   50.5930 C   0  0  0  0  0  0  0  0  0  0  0  0
   40.1670   29.9250   51.0730 C   0  0  0  0  0  0  0  0  0  0  0  0
   40.8010   30.7910   50.3050 F   0  0  0  0  0  0  0  0  0  0  0  0
   39.7570   30.2970   52.4770 C   0  0  0  0  0  0  0  0  0  0  0  0
   39.0550   29.3340   53.1960 C   0  0  0  0  0  0  0  0  0  0  0  0
   37.8210   30.4020   58.3850 N   0  0  2  0  0  0  0  0  0  0  0  0
   38.4450   31.7240   58.1260 C   0  0  0  0  0  0  0  0  0  0  0  0
   37.9720   32.3650   56.9650 N   0  0  0  0  0  0  0  0  0  0  0  0
   37.5300   33.8320   57.4570 O   0  0  0  0  0  0  0  0  0  0  0  0
   36.6750   30.4140   59.3550 C   0  0  0  0  0  0  0  0  0  0  0  0
   36.7770   31.5610   60.4110 C   0  0  1  0  0  0  0  0  0  0  0  0
   35.4970   32.3220   60.7430 C   0  0  0  0  0  0  0  0  0  0  0  0
   35.4780   33.7780   60.3420 C   0  0  0  0  0  0  0  0  0  0  0  0
   36.4440   34.4590   61.2470 C   0  0  0  0  0  0  0  0  0  0  0  0
   37.5000   35.3250   60.6560 C   0  0  0  0  0  0  0  0  0  0  0  0
   38.3680   35.9360   61.8060 C   0  0  2  0  0  0  0  0  0  0  0  0
   37.6920   37.1520   62.4860 C   0  0  0  0  0  0  0  0  0  0  0  0
   37.1630   38.0310   61.3310 C   0  0  0  0  0  0  0  0  0  0  0  0
   38.0970   38.9910   60.8870 O   0  0  0  0  0  0  0  0  0  0  0  0
   35.8110   38.4140   61.6310 O   0  0  0  0  0  0  0  0  0  0  0  0
   39.5010   36.4730   61.0820 O   0  0  0  0  0  0  0  0  0  0  0  0
   40.5240   36.5390   62.1000 C   0  0  0  0  0  0  0  0  0  0  0  0
   37.4560   31.1150   61.6430 O   0  0  0  0  0  0  0  0  0  0  0  0
   38.7250   31.6320   62.1280 C   0  0  0  0  0  0  0  0  0  0  0  0
   39.7621   28.8297   61.4075 H   0  0  0  0  0  0  0  0  0  0  0  0
   38.8974   27.6584   60.3553 H   0  0  0  0  0  0  0  0  0  0  0  0
   40.6929   27.7102   60.3553 H   0  0  0  0  0  0  0  0  0  0  0  0
   39.5882   30.3385   59.7672 H   0  0  0  0  0  0  0  0  0  0  0  0
   40.7067   29.2200   58.7823 H   0  0  0  0  0  0  0  0  0  0  0  0
   38.2629   28.2145   58.4255 H   0  0  0  0  0  0  0  0  0  0  0  0
   38.4768   27.7295   56.7218 H   0  0  0  0  0  0  0  0  0  0  0  0
   40.9288   28.1904   57.5043 H   0  0  0  0  0  0  0  0  0  0  0  0
   40.4198   27.3954   55.9761 H   0  0  0  0  0  0  0  0  0  0  0  0
   40.8757   29.1329   55.9761 H   0  0  0  0  0  0  0  0  0  0  0  0
   37.7674   30.3403   54.2363 H   0  0  0  0  0  0  0  0  0  0  0  0
   37.1283   27.7233   55.4824 H   0  0  0  0  0  0  0  0  0  0  0  0
   36.2062   28.4086   54.1291 H   0  0  0  0  0  0  0  0  0  0  0  0
   38.4818   26.4395   54.1153 H   0  0  0  0  0  0  0  0  0  0  0  0
   37.1106   26.5419   53.0103 H   0  0  0  0  0  0  0  0  0  0  0  0
   39.1224   26.7123   50.8713 H   0  0  0  0  0  0  0  0  0  0  0  0
   40.3092   28.3842   49.5941 H   0  0  0  0  0  0  0  0  0  0  0  0
   40.0004   31.2786   52.9097 H   0  0  0  0  0  0  0  0  0  0  0  0
   37.2580   30.1760   57.5530 H   0  0  0  0  0  0  0  0  0  0  0  0
   38.2422   32.3766   58.9880 H   0  0  0  0  0  0  0  0  0  0  0  0
   39.5193   31.5435   57.9735 H   0  0  0  0  0  0  0  0  0  0  0  0
   38.7170   32.4290   56.2570 H   0  0  0  0  0  0  0  0  0  0  0  0
   37.1560   33.7740   58.3720 H   0  0  0  0  0  0  0  0  0  0  0  0
   35.7397   30.5406   58.7901 H   0  0  0  0  0  0  0  0  0  0  0  0
   36.6997   29.4607   59.9032 H   0  0  0  0  0  0  0  0  0  0  0  0
   37.3935   32.3071   59.8883 H   0  0  0  0  0  0  0  0  0  0  0  0
   34.6628   31.8196   60.2314 H   0  0  0  0  0  0  0  0  0  0  0  0
   35.4183   32.3121   61.8401 H   0  0  0  0  0  0  0  0  0  0  0  0
   35.7902   33.8909   59.2933 H   0  0  0  0  0  0  0  0  0  0  0  0
   34.4695   34.2089   60.4272 H   0  0  0  0  0  0  0  0  0  0  0  0
   35.8559   35.0890   61.9306 H   0  0  0  0  0  0  0  0  0  0  0  0
   37.0068   33.6310   61.7027 H   0  0  0  0  0  0  0  0  0  0  0  0
   38.1392   34.7246   59.9920 H   0  0  0  0  0  0  0  0  0  0  0  0
   37.0324   36.1344   60.0761 H   0  0  0  0  0  0  0  0  0  0  0  0
   38.5722   35.1865   62.5849 H   0  0  0  0  0  0  0  0  0  0  0  0
   36.8624   36.8211   63.1280 H   0  0  0  0  0  0  0  0  0  0  0  0
   38.3950   37.7027   63.1283 H   0  0  0  0  0  0  0  0  0  0  0  0
   37.0697   37.4749   60.3865 H   0  0  0  0  0  0  0  0  0  0  0  0
   38.3550   39.5740   61.6450 H   0  0  0  0  0  0  0  0  0  0  0  0
   35.5310   39.1390   61.0190 H   0  0  0  0  0  0  0  0  0  0  0  0
   40.0544   36.5087   63.0943 H   0  0  0  0  0  0  0  0  0  0  0  0
   41.2061   35.6830   61.9904 H   0  0  0  0  0  0  0  0  0  0  0  0
   41.0904   37.4756   61.9904 H   0  0  0  0  0  0  0  0  0  0  0  0
   38.7246   31.6319   63.2280 H   0  0  0  0  0  0  0  0  0  0  0  0
   39.5442   30.9959   61.7615 H   0  0  0  0  0  0  0  0  0  0  0  0
   38.8665   32.6595   61.7615 H   0  0  0  0  0  0  0  0  0  0  0  0
  1  2  1  0
  2  3  1  0
  3  4  1  0
  4  5  1  0
  4  6  1  0
  6  7  1  0
  7  8  1  0
  8  9  1  0
  9 10  1  0
 10 11  1  0
 11 12  2  0
 12 13  1  0
 13 14  1  0
 13 15  2  0
 15 16  1  0
  3 17  1  0
 17 18  1  0
 18 19  1  0
 19 20  1  0
 17 21  1  0
 21 22  1  0
 22 23  1  0
 23 24  1  0
 24 25  1  0
 25 26  1  0
 26 27  1  0
 27 28  1  0
 28 29  1  0
 29 30  1  0
 29 31  1  0
 27 32  1  0
 32 33  1  0
 22 34  1  0
 34 35  1  0
 16  7  1  0
 16 10  2  0
  1 36  1  0
  1 37  1  0
  1 38  1  0
  2 39  1  0
  2 40  1  0
  3 41  1  1
  4 42  1  1
  5 43  1  0
  5 44  1  0
  5 45  1  0
  7 46  1  6
  8 47  1  0
  8 48  1  0
  9 49  1  0
  9 50  1  0
 11 51  1  0
 12 52  1  0
 15 53  1  0
 17 54  1  6
 18 55  1  0
 18 56  1  0
 19 57  1  0
 20 58  1  0
 21 59  1  0
 21 60  1  0
 22 61  1  6
 23 62  1  0
 23 63  1  0
 24 64  1  0
 24 65  1  0
 25 66  1  0
 25 67  1  0
 26 68  1  0
 26 69  1  0
 27 70  1  1
 28 71  1  0
 28 72  1  0
 29 73  1  0
 30 74  1  0
 31 75  1  0
 33 76  1  0
 33 77  1  0
 33 78  1  0
 35 79  1  0
 35 80  1  0
 35 81  1  0
M  CHG  1  17   1
M  END
>  <docking_score>  (4) 
-8.508

>  <plif_similarity>  (4) 
0.667

$$$$
DiffSBDD_14
     RDKit          3D

 59 60  0  0  0  0  0  0  0  0999 V2000
   37.5760   25.0200   55.5190 C   0  0  0  0  0  0  0  0  0  0  0  0
   38.9550   25.2900   55.8360 C   0  0  0  0  0  0  0  0  0  0  0  0
   39.7310   25.5330   54.8830 C   0  0  0  0  0  0  0  0  0  0  0  0
   39.5030   25.2120   57.2250 C   0  0  0  0  0  0  0  0  0  0  0  0
   39.7340   26.5200   57.9040 N   0  0  2  0  0  0  0  0  0  0  0  0
   40.8410   27.5090   57.6070 C   0  0  0  0  0  0  0  0  0  0  0  0
   40.4550   28.9310   57.7640 C   0  0  0  0  0  0  0  0  0  0  0  0
   39.5340   29.2480   58.9510 C   0  0  1  0  0  0  0  0  0  0  0  0
   38.3480   30.1420   58.8740 C   0  0  0  0  0  0  0  0  0  0  0  0
   38.6390   31.4170   58.7870 C   0  0  0  0  0  0  0  0  0  0  0  0
   38.2160   32.0330   57.4460 C   0  0  1  0  0  0  0  0  0  0  0  0
   39.0940   32.8130   56.4490 C   0  0  0  0  0  0  0  0  0  0  0  0
   37.5900   30.8870   56.6840 N   0  0  0  0  0  0  0  0  0  0  0  0
   37.6380   30.6990   55.3160 C   0  0  2  0  0  0  0  0  0  0  0  0
   36.3870   30.9070   54.5770 O   0  0  0  0  0  0  0  0  0  0  0  0
   38.0120   29.2140   55.1650 C   0  0  0  0  0  0  0  0  0  0  0  0
   38.4240   28.9460   53.7340 C   0  0  0  0  0  0  0  0  0  0  0  0
   37.9190   27.7850   53.0760 C   0  0  0  0  0  0  0  0  0  0  0  0
   38.2080   27.5930   51.7840 N   0  0  0  0  0  0  0  0  0  0  0  0
   39.0800   28.4180   51.1030 C   0  0  0  0  0  0  0  0  0  0  0  0
   39.7150   29.5500   51.7650 C   0  0  0  0  0  0  0  0  0  0  0  0
   40.8070   30.3920   50.7110 Cl  0  0  0  0  0  0  0  0  0  0  0  0
   39.3610   29.7740   53.1300 C   0  0  0  0  0  0  0  0  0  0  0  0
   39.4850   27.9960   59.8310 C   0  0  0  0  0  0  0  0  0  0  0  0
   38.9510   26.8400   59.0940 C   0  0  0  0  0  0  0  0  0  0  0  0
   36.8591   24.8016   56.3242 H   0  0  0  0  0  0  0  0  0  0  0  0
   37.2398   25.0323   54.4717 H   0  0  0  0  0  0  0  0  0  0  0  0
   40.7110   25.8399   55.2772 H   0  0  0  0  0  0  0  0  0  0  0  0
   39.8501   24.6291   54.2675 H   0  0  0  0  0  0  0  0  0  0  0  0
   39.3133   26.3433   54.2675 H   0  0  0  0  0  0  0  0  0  0  0  0
   38.7937   24.6346   57.8362 H   0  0  0  0  0  0  0  0  0  0  0  0
   40.4941   24.7443   57.1303 H   0  0  0  0  0  0  0  0  0  0  0  0
   39.4930   26.5440   56.9030 H   0  0  0  0  0  0  0  0  0  0  0  0
   41.6779   27.3030   58.2905 H   0  0  0  0  0  0  0  0  0  0  0  0
   41.1058   27.3725   56.5481 H   0  0  0  0  0  0  0  0  0  0  0  0
   41.3766   29.5191   57.8859 H   0  0  0  0  0  0  0  0  0  0  0  0
   39.8774   29.1843   56.8627 H   0  0  0  0  0  0  0  0  0  0  0  0
   39.9997   30.1059   59.4581 H   0  0  0  0  0  0  0  0  0  0  0  0
   37.7617   29.8610   57.9867 H   0  0  0  0  0  0  0  0  0  0  0  0
   37.7915   30.0091   59.8135 H   0  0  0  0  0  0  0  0  0  0  0  0
   38.1226   31.9516   59.5979 H   0  0  0  0  0  0  0  0  0  0  0  0
   39.7319   31.5137   58.8661 H   0  0  0  0  0  0  0  0  0  0  0  0
   37.6445   32.8979   57.8138 H   0  0  0  0  0  0  0  0  0  0  0  0
   39.8047   33.4444   57.0023 H   0  0  0  0  0  0  0  0  0  0  0  0
   39.6486   32.1043   55.8164 H   0  0  0  0  0  0  0  0  0  0  0  0
   38.4556   33.4472   55.8164 H   0  0  0  0  0  0  0  0  0  0  0  0
   38.0060   30.0360   57.0880 H   0  0  0  0  0  0  0  0  0  0  0  0
   36.5950   31.1280   56.7940 H   0  0  0  0  0  0  0  0  0  0  0  0
   38.3333   31.4410   54.8966 H   0  0  0  0  0  0  0  0  0  0  0  0
   36.5550   31.5090   53.8090 H   0  0  0  0  0  0  0  0  0  0  0  0
   38.8478   28.9750   55.8391 H   0  0  0  0  0  0  0  0  0  0  0  0
   37.1455   28.5873   55.4229 H   0  0  0  0  0  0  0  0  0  0  0  0
   37.3008   27.0582   53.6233 H   0  0  0  0  0  0  0  0  0  0  0  0
   39.2990   28.2178   50.0438 H   0  0  0  0  0  0  0  0  0  0  0  0
   39.8257   30.5939   53.6973 H   0  0  0  0  0  0  0  0  0  0  0  0
   40.5029   27.7611   60.1756 H   0  0  0  0  0  0  0  0  0  0  0  0
   38.8203   28.1990   60.6836 H   0  0  0  0  0  0  0  0  0  0  0  0
   38.9523   25.9658   59.7617 H   0  0  0  0  0  0  0  0  0  0  0  0
   37.9340   27.0977   58.7633 H   0  0  0  0  0  0  0  0  0  0  0  0
  1  2  2  0
  2  3  1  0
  2  4  1  0
  4  5  1  0
  5  6  1  0
  6  7  1  0
  7  8  1  0
  8  9  1  0
  9 10  1  0
 10 11  1  0
 11 12  1  0
 11 13  1  0
 13 14  1  0
 14 15  1  0
 14 16  1  0
 16 17  1  0
 17 18  2  0
 18 19  1  0
 19 20  2  0
 20 21  1  0
 21 22  1  0
 21 23  2  0
  8 24  1  0
 24 25  1  0
 25  5  1  0
 23 17  1  0
  1 26  1  0
  1 27  1  0
  3 28  1  0
  3 29  1  0
  3 30  1  0
  4 31  1  0
  4 32  1  0
  5 33  1  6
  6 34  1  0
  6 35  1  0
  7 36  1  0
  7 37  1  0
  8 38  1  1
  9 39  1  0
  9 40  1  0
 10 41  1  0
 10 42  1  0
 11 43  1  1
 12 44  1  0
 12 45  1  0
 12 46  1  0
 13 47  1  0
 13 48  1  0
 14 49  1  6
 15 50  1  0
 16 51  1  0
 16 52  1  0
 18 53  1  0
 20 54  1  0
 23 55  1  0
 24 56  1  0
 24 57  1  0
 25 58  1  0
 25 59  1  0
M  CHG  2   5   1  13   1
M  END
>  <docking_score>  (5) 
-8.615

>  <plif_similarity>  (5) 
0.556

$$$$
DiffSBDD_15
     RDKit          3D

 41 43  0  0  0  0  0  0  0  0999 V2000
   37.2860   28.1570   52.1750 O   0  0  0  0  0  0  0  0  0  0  0  0
   38.6110   27.8390   52.8990 S   0  0  0  0  0  0  0  0  0  0  0  0
   39.6540   27.1080   52.1980 O   0  0  0  0  0  0  0  0  0  0  0  0
   39.1120   29.4610   53.3100 C   0  0  0  0  0  0  0  0  0  0  0  0
   38.6860   30.0810   54.6110 C   0  0  1  0  0  0  0  0  0  0  0  0
   39.5020   30.5060   55.6820 C   0  0  0  0  0  0  0  0  0  0  0  0
   38.5420   30.9490   56.6960 C   0  0  0  0  0  0  0  0  0  0  0  0
   37.2260   30.5200   56.3090 N   0  0  0  0  0  0  0  0  0  0  0  0
   37.2180   30.1490   54.9370 C   0  0  0  0  0  0  0  0  0  0  0  0
   38.0200   26.6350   54.2350 N   0  0  0  0  0  0  0  0  0  0  0  0
   38.5960   26.9170   55.4690 C   0  0  2  0  0  0  0  0  0  0  0  0
   40.1620   26.3640   55.8590 C   0  0  0  0  0  0  0  0  0  0  0  0
   40.5650   27.1540   57.3720 C   0  0  1  0  0  0  0  0  0  0  0  0
   41.2690   28.1790   58.5340 C   0  0  0  0  0  0  0  0  0  0  0  0
   40.2130   28.4110   59.6090 C   0  0  0  0  0  0  0  0  0  0  0  0
   38.8380   28.1070   59.0740 C   0  0  0  0  0  0  0  0  0  0  0  0
   39.0410   27.3220   57.7440 C   0  0  1  0  0  0  0  0  0  0  0  0
   38.1820   27.3500   56.6480 O   0  0  0  0  0  0  0  0  0  0  0  0
   40.2120   29.4627   53.3046 H   0  0  0  0  0  0  0  0  0  0  0  0
   38.5965   30.0783   52.5596 H   0  0  0  0  0  0  0  0  0  0  0  0
   38.6128   29.0811   55.0636 H   0  0  0  0  0  0  0  0  0  0  0  0
   40.1167   29.6758   56.0601 H   0  0  0  0  0  0  0  0  0  0  0  0
   40.2096   31.2963   55.3910 H   0  0  0  0  0  0  0  0  0  0  0  0
   38.8029   30.5080   57.6694 H   0  0  0  0  0  0  0  0  0  0  0  0
   38.5673   32.0455   56.7798 H   0  0  0  0  0  0  0  0  0  0  0  0
   36.5590   31.2910   56.4570 H   0  0  0  0  0  0  0  0  0  0  0  0
   36.9540   29.7080   56.8800 H   0  0  0  0  0  0  0  0  0  0  0  0
   36.7326   29.1726   54.7918 H   0  0  0  0  0  0  0  0  0  0  0  0
   36.6578   30.8464   54.2968 H   0  0  0  0  0  0  0  0  0  0  0  0
   36.9960   26.7050   54.3200 H   0  0  0  0  0  0  0  0  0  0  0  0
   38.0150   27.5248   54.7598 H   0  0  0  0  0  0  0  0  0  0  0  0
   40.1657   25.2709   55.9817 H   0  0  0  0  0  0  0  0  0  0  0  0
   40.8893   26.5967   55.0672 H   0  0  0  0  0  0  0  0  0  0  0  0
   41.6071   26.8098   57.2976 H   0  0  0  0  0  0  0  0  0  0  0  0
   42.1578   27.7016   58.9722 H   0  0  0  0  0  0  0  0  0  0  0  0
   41.5895   29.1292   58.0819 H   0  0  0  0  0  0  0  0  0  0  0  0
   40.4204   27.7551   60.4673 H   0  0  0  0  0  0  0  0  0  0  0  0
   40.2481   29.4656   59.9197 H   0  0  0  0  0  0  0  0  0  0  0  0
   38.2774   27.4937   59.7948 H   0  0  0  0  0  0  0  0  0  0  0  0
   38.2648   29.0307   58.9057 H   0  0  0  0  0  0  0  0  0  0  0  0
   38.5602   26.4048   58.1149 H   0  0  0  0  0  0  0  0  0  0  0  0
  1  2  2  0
  2  3  2  0
  2  4  1  0
  4  5  1  0
  5  6  1  0
  6  7  1  0
  7  8  1  0
  8  9  1  0
  2 10  1  0
 10 11  1  0
 11 12  1  0
 12 13  1  0
 13 14  1  0
 14 15  1  0
 15 16  1  0
 16 17  1  0
 17 18  1  0
  9  5  1  0
 18 11  1  0
 17 13  1  0
  4 19  1  0
  4 20  1  0
  5 21  1  6
  6 22  1  0
  6 23  1  0
  7 24  1  0
  7 25  1  0
  8 26  1  0
  8 27  1  0
  9 28  1  0
  9 29  1  0
 10 30  1  0
 11 31  1  6
 12 32  1  0
 12 33  1  0
 13 34  1  1
 14 35  1  0
 14 36  1  0
 15 37  1  0
 15 38  1  0
 16 39  1  0
 16 40  1  0
 17 41  1  1
M  CHG  1   8   1
M  END
>  <docking_score>  (6) 
-7.278

>  <plif_similarity>  (6) 
0.333

$$$$
DiffSBDD_16
     RDKit          3D

 73 79  0  0  0  0  0  0  0  0999 V2000
   38.8680   31.6700   55.2120 O   0  0  0  0  0  0  0  0  0  0  0  0
   39.4210   30.6780   55.6800 C   0  0  0  0  0  0  0  0  0  0  0  0
   39.2340   29.2630   55.7120 C   0  0  0  0  0  0  0  0  0  0  0  0
   38.5770   28.6090   54.5680 C   0  0  0  0  0  0  0  0  0  0  0  0
   38.5580   29.3420   53.4880 N   0  0  0  0  0  0  0  0  0  0  0  0
   39.4450   29.1500   52.4080 C   0  0  1  0  0  0  0  0  0  0  0  0
   39.8930   30.5200   51.9200 C   0  0  0  0  0  0  0  0  0  0  0  0
   40.2080   30.5930   50.3920 C   0  0  0  0  0  0  0  0  0  0  0  0
   40.4820   29.2480   49.7470 C   0  0  0  0  0  0  0  0  0  0  0  0
   39.8250   28.0470   50.3640 C   0  0  1  0  0  0  0  0  0  0  0  0
   39.8850   27.7840   51.8420 C   0  0  2  0  0  0  0  0  0  0  0  0
   38.6910   28.4470   51.3170 C   0  0  1  0  0  0  0  0  0  0  0  0
   38.0710   27.3390   54.5950 O   0  0  0  0  0  0  0  0  0  0  0  0
   38.1420   26.5580   55.6060 C   0  0  1  0  0  0  0  0  0  0  0  0
   37.6630   25.3370   55.4890 C   0  0  0  0  0  0  0  0  0  0  0  0
   37.6630   24.4310   56.6350 C   0  0  0  0  0  0  0  0  0  0  0  0
   38.2010   24.8730   57.8770 C   0  0  0  0  0  0  0  0  0  0  0  0
   37.7630   24.0690   58.8730 F   0  0  0  0  0  0  0  0  0  0  0  0
   38.6860   26.2100   58.0000 C   0  0  0  0  0  0  0  0  0  0  0  0
   38.7290   26.9860   56.8690 C   0  0  0  0  0  0  0  0  0  0  0  0
   39.3350   28.5000   56.9930 C   0  0  0  0  0  0  0  0  0  0  0  0
   39.8880   28.7610   57.9560 C   0  0  0  0  0  0  0  0  0  0  0  0
   39.3500   29.1110   59.3400 C   0  0  0  0  0  0  0  0  0  0  0  0
   38.8080   30.3070   59.7710 C   0  0  0  0  0  0  0  0  0  0  0  0
   38.6310   31.3320   60.2620 C   0  0  0  0  0  0  0  0  0  0  0  0
   38.3910   32.8920   60.4710 C   0  0  1  0  0  0  0  0  0  0  0  0
   39.8970   33.1720   61.1870 C   0  0  0  0  0  0  0  0  0  0  0  0
   40.2560   34.3980   61.2430 C   0  0  0  0  0  0  0  0  0  0  0  0
   39.8030   35.6960   61.6950 C   0  0  1  0  0  0  0  0  0  0  0  0
   40.2680   37.0490   61.9490 C   0  0  0  0  0  0  0  0  0  0  0  0
   39.3820   37.8530   62.2360 C   0  0  0  0  0  0  0  0  0  0  0  0
   37.9830   37.8240   61.7810 C   0  0  0  0  0  0  0  0  0  0  0  0
   37.3700   36.4620   61.8660 C   0  0  0  0  0  0  0  0  0  0  0  0
   38.4420   35.8390   61.1820 N   0  0  0  0  0  0  0  0  0  0  0  0
   37.9160   35.1820   59.9350 C   0  0  0  0  0  0  0  0  0  0  0  0
   37.2020   35.9300   59.1250 O   0  0  0  0  0  0  0  0  0  0  0  0
   37.9150   33.7740   59.5070 C   0  0  2  0  0  0  0  0  0  0  0  0
   36.7660   33.4540   58.9260 O   0  0  0  0  0  0  0  0  0  0  0  0
   40.3251   30.9635   56.2378 H   0  0  0  0  0  0  0  0  0  0  0  0
   37.8610   30.0980   53.4220 H   0  0  0  0  0  0  0  0  0  0  0  0
   39.0927   31.2417   52.1405 H   0  0  0  0  0  0  0  0  0  0  0  0
   40.8333   30.7463   52.4441 H   0  0  0  0  0  0  0  0  0  0  0  0
   39.3459   31.0497   49.8838 H   0  0  0  0  0  0  0  0  0  0  0  0
   41.1286   31.1860   50.2878 H   0  0  0  0  0  0  0  0  0  0  0  0
   40.1474   29.3079   48.7008 H   0  0  0  0  0  0  0  0  0  0  0  0
   41.5611   29.0825   49.8814 H   0  0  0  0  0  0  0  0  0  0  0  0
   40.0157   27.4017   49.4938 H   0  0  0  0  0  0  0  0  0  0  0  0
   40.4738   27.0030   52.3454 H   0  0  0  0  0  0  0  0  0  0  0  0
   37.6252   28.5742   51.0764 H   0  0  0  0  0  0  0  0  0  0  0  0
   37.1580   26.9113   55.9480 H   0  0  0  0  0  0  0  0  0  0  0  0
   37.2607   24.9974   54.5232 H   0  0  0  0  0  0  0  0  0  0  0  0
   37.2508   23.4157   56.5392 H   0  0  0  0  0  0  0  0  0  0  0  0
   39.0153   26.6062   58.9719 H   0  0  0  0  0  0  0  0  0  0  0  0
   40.5377   27.8915   58.1345 H   0  0  0  0  0  0  0  0  0  0  0  0
   40.2046   29.7741   57.6671 H   0  0  0  0  0  0  0  0  0  0  0  0
   38.5622   28.3665   59.5273 H   0  0  0  0  0  0  0  0  0  0  0  0
   40.3077   29.1627   59.8787 H   0  0  0  0  0  0  0  0  0  0  0  0
   37.4598   33.1317   61.0052 H   0  0  0  0  0  0  0  0  0  0  0  0
   39.8628   32.7806   62.2145 H   0  0  0  0  0  0  0  0  0  0  0  0
   40.6363   32.6675   60.5475 H   0  0  0  0  0  0  0  0  0  0  0  0
   41.2099   34.3108   61.7839 H   0  0  0  0  0  0  0  0  0  0  0  0
   39.8894   34.5873   60.2233 H   0  0  0  0  0  0  0  0  0  0  0  0
   40.3614   35.4487   62.6099 H   0  0  0  0  0  0  0  0  0  0  0  0
   40.9825   37.0142   62.7846 H   0  0  0  0  0  0  0  0  0  0  0  0
   40.7165   37.4042   61.0095 H   0  0  0  0  0  0  0  0  0  0  0  0
   39.3241   37.8320   63.3343 H   0  0  0  0  0  0  0  0  0  0  0  0
   39.7377   38.7223   61.6635 H   0  0  0  0  0  0  0  0  0  0  0  0
   37.3962   38.5124   62.4069 H   0  0  0  0  0  0  0  0  0  0  0  0
   37.9744   38.1238   60.7227 H   0  0  0  0  0  0  0  0  0  0  0  0
   37.2470   36.1043   62.8989 H   0  0  0  0  0  0  0  0  0  0  0  0
   36.3496   36.3214   61.4799 H   0  0  0  0  0  0  0  0  0  0  0  0
   38.6715   33.6564   58.7171 H   0  0  0  0  0  0  0  0  0  0  0  0
   36.5540   34.1210   58.2260 H   0  0  0  0  0  0  0  0  0  0  0  0
  1  2  2  0
  2  3  1  0
  3  4  2  0
  4  5  1  0
  6  5  1  1
  6  7  1  0
  7  8  1  0
  8  9  1  0
  9 10  1  0
 10 11  1  0
 11 12  1  0
  4 13  1  0
 13 14  1  0
 14 15  1  0
 15 16  2  0
 16 17  1  0
 17 18  1  0
 17 19  2  0
 19 20  1  0
 20 21  2  0
 21 22  1  0
 22 23  1  0
 23 24  1  0
 24 25  3  0
 25 26  1  0
 26 27  1  0
 27 28  1  0
 28 29  1  0
 29 30  1  0
 30 31  1  0
 31 32  1  0
 32 33  1  0
 33 34  1  0
 34 35  1  0
 35 36  2  0
 35 37  1  0
 37 38  1  0
 21  3  1  0
 37 26  1  0
 11  6  1  0
 20 14  1  0
 34 29  1  0
 12  6  1  0
 12 10  1  0
  2 39  1  0
  5 40  1  0
  7 41  1  0
  7 42  1  0
  8 43  1  0
  8 44  1  0
  9 45  1  0
  9 46  1  0
 10 47  1  6
 11 48  1  1
 12 49  1  6
 14 50  1  1
 15 51  1  0
 16 52  1  0
 19 53  1  0
 22 54  1  0
 22 55  1  0
 23 56  1  0
 23 57  1  0
 26 58  1  1
 27 59  1  0
 27 60  1  0
 28 61  1  0
 28 62  1  0
 29 63  1  1
 30 64  1  0
 30 65  1  0
 31 66  1  0
 31 67  1  0
 32 68  1  0
 32 69  1  0
 33 70  1  0
 33 71  1  0
 37 72  1  6
 38 73  1  0
M  END
>  <docking_score>  (7) 
-13.487

>  <plif_similarity>  (7) 
0.222

$$$$
DiffSBDD_17
     RDKit          3D

 92 96  0  0  0  0  0  0  0  0999 V2000
   41.3150   34.6680   61.3440 C   0  0  0  0  0  0  0  0  0  0  0  0
   40.2830   35.6670   61.1520 C   0  0  0  0  0  0  0  0  0  0  0  0
   40.3670   36.7240   62.2660 C   0  0  0  0  0  0  0  0  0  0  0  0
   38.9350   34.9480   61.2920 C   0  0  0  0  0  0  0  0  0  0  0  0
   37.8340   35.5200   60.2970 C   0  0  1  0  0  0  0  0  0  0  0  0
   36.9090   34.7930   59.2830 C   0  0  1  0  0  0  0  0  0  0  0  0
   37.5370   34.1790   58.2700 O   0  0  0  0  0  0  0  0  0  0  0  0
   36.0150   33.8450   60.1010 N   0  0  0  0  0  0  0  0  0  0  0  0
   36.0740   32.3300   60.2160 C   0  0  2  0  0  0  0  0  0  0  0  0
   35.2630   31.7210   60.8400 C   0  0  0  0  0  0  0  0  0  0  0  0
   34.8020   32.2930   61.9000 O   0  0  0  0  0  0  0  0  0  0  0  0
   37.2680   31.7450   60.6560 C   0  0  0  0  0  0  0  0  0  0  0  0
   38.0210   31.0200   59.9870 C   0  0  2  0  0  0  0  0  0  0  0  0
   38.1940   29.8430   58.5870 C   0  0  0  0  0  0  0  0  0  0  0  0
   39.3020   28.9550   58.5220 C   0  0  2  0  0  0  0  0  0  0  0  0
   39.5930   28.7140   57.1910 N   0  0  0  0  0  0  0  0  0  0  0  0
   39.8100   29.2730   56.0260 C   0  0  0  0  0  0  0  0  0  0  0  0
   39.2850   29.6440   55.1290 C   0  0  1  0  0  0  0  0  0  0  0  0
   38.8260   30.7600   54.9280 C   0  0  1  0  0  0  0  0  0  0  0  0
   38.3510   32.3190   55.5580 S   0  0  0  0  0  0  0  0  0  0  0  0
   39.2090   31.2160   53.7350 O   0  0  0  0  0  0  0  0  0  0  0  0
   39.5220   30.2730   52.9240 C   0  0  0  0  0  0  0  0  0  0  0  0
   40.2020   30.3670   51.7680 C   0  0  0  0  0  0  0  0  0  0  0  0
   39.9640   29.5290   50.5500 C   0  0  0  0  0  0  0  0  0  0  0  0
   39.6020   28.1790   50.6810 C   0  0  0  0  0  0  0  0  0  0  0  0
   39.0900   27.3830   51.8660 C   0  0  0  0  0  0  0  0  0  0  0  0
   38.9940   27.7480   53.1220 C   0  0  0  0  0  0  0  0  0  0  0  0
   39.3080   29.0300   53.6550 C   0  0  2  0  0  0  0  0  0  0  0  0
   40.5490   28.1540   59.2490 C   0  0  0  0  0  0  0  0  0  0  0  0
   40.4100   28.7140   60.7390 C   0  0  0  0  0  0  0  0  0  0  0  0
   39.8620   30.1490   60.6760 C   0  0  2  0  0  0  0  0  0  0  0  0
   39.6140   31.2670   61.6850 C   0  0  1  0  0  0  0  0  0  0  0  0
   40.9120   31.1440   62.5830 C   0  0  0  0  0  0  0  0  0  0  0  0
   38.9800   30.7680   60.8180 N   0  0  1  0  0  0  0  0  0  0  0  0
   37.1220   36.5070   61.1640 N   0  0  0  0  0  0  0  0  0  0  0  0
   36.6010   36.3240   62.3190 N   0  0  0  0  0  0  0  0  0  0  0  0
   36.1270   37.5370   62.9620 C   0  0  0  0  0  0  0  0  0  0  0  0
   36.2510   38.4420   61.9390 C   0  0  0  0  0  0  0  0  0  0  0  0
   36.8100   37.6820   60.7860 N   0  0  0  0  0  0  0  0  0  0  0  0
   41.4774   34.5108   62.4205 H   0  0  0  0  0  0  0  0  0  0  0  0
   41.0008   33.7221   60.8786 H   0  0  0  0  0  0  0  0  0  0  0  0
   42.2502   35.0128   60.8786 H   0  0  0  0  0  0  0  0  0  0  0  0
   40.3986   36.1535   60.1722 H   0  0  0  0  0  0  0  0  0  0  0  0
   40.3275   36.2272   63.2466 H   0  0  0  0  0  0  0  0  0  0  0  0
   41.3121   37.2793   62.1741 H   0  0  0  0  0  0  0  0  0  0  0  0
   39.5215   37.4216   62.1741 H   0  0  0  0  0  0  0  0  0  0  0  0
   39.0816   33.8788   61.0791 H   0  0  0  0  0  0  0  0  0  0  0  0
   38.5746   35.1100   62.3186 H   0  0  0  0  0  0  0  0  0  0  0  0
   38.4382   35.7860   59.4172 H   0  0  0  0  0  0  0  0  0  0  0  0
   36.3093   35.5457   58.7502 H   0  0  0  0  0  0  0  0  0  0  0  0
   38.4510   33.9270   58.5520 H   0  0  0  0  0  0  0  0  0  0  0  0
   35.0620   34.0380   59.7620 H   0  0  0  0  0  0  0  0  0  0  0  0
   36.3800   34.0740   61.0360 H   0  0  0  0  0  0  0  0  0  0  0  0
   35.8862   32.2348   59.1363 H   0  0  0  0  0  0  0  0  0  0  0  0
   34.4120   31.5182   60.1731 H   0  0  0  0  0  0  0  0  0  0  0  0
   35.7873   30.8232   61.1993 H   0  0  0  0  0  0  0  0  0  0  0  0
   33.8540   32.5410   61.7560 H   0  0  0  0  0  0  0  0  0  0  0  0
   37.8962   32.5866   60.9832 H   0  0  0  0  0  0  0  0  0  0  0  0
   36.8610   30.9961   61.3513 H   0  0  0  0  0  0  0  0  0  0  0  0
   37.5549   31.5321   59.1323 H   0  0  0  0  0  0  0  0  0  0  0  0
   37.2890   29.2177   58.5877 H   0  0  0  0  0  0  0  0  0  0  0  0
   38.3591   30.5069   57.7256 H   0  0  0  0  0  0  0  0  0  0  0  0
   39.9897   29.8135   58.5169 H   0  0  0  0  0  0  0  0  0  0  0  0
   40.4580   28.1650   57.2920 H   0  0  0  0  0  0  0  0  0  0  0  0
   38.5890   28.6290   56.9750 H   0  0  0  0  0  0  0  0  0  0  0  0
   40.3648   30.1734   56.3285 H   0  0  0  0  0  0  0  0  0  0  0  0
   39.9938   28.2962   55.5547 H   0  0  0  0  0  0  0  0  0  0  0  0
   38.9278   29.0485   55.9821 H   0  0  0  0  0  0  0  0  0  0  0  0
   38.1407   30.1951   55.5770 H   0  0  0  0  0  0  0  0  0  0  0  0
   37.5480   32.1430   56.6550 H   0  0  0  0  0  0  0  0  0  0  0  0
   40.9996   31.1224   51.7123 H   0  0  0  0  0  0  0  0  0  0  0  0
   40.0732   29.9727   49.5494 H   0  0  0  0  0  0  0  0  0  0  0  0
   39.7091   27.5923   49.7567 H   0  0  0  0  0  0  0  0  0  0  0  0
   38.7533   26.3602   51.6414 H   0  0  0  0  0  0  0  0  0  0  0  0
   38.6358   26.9892   53.8332 H   0  0  0  0  0  0  0  0  0  0  0  0
   39.5844   27.9756   53.5073 H   0  0  0  0  0  0  0  0  0  0  0  0
   40.4119   27.0633   59.2087 H   0  0  0  0  0  0  0  0  0  0  0  0
   41.5337   28.3127   58.7852 H   0  0  0  0  0  0  0  0  0  0  0  0
   39.7180   28.0781   61.3106 H   0  0  0  0  0  0  0  0  0  0  0  0
   41.3918   28.7087   61.2349 H   0  0  0  0  0  0  0  0  0  0  0  0
   40.4794   29.7805   59.8435 H   0  0  0  0  0  0  0  0  0  0  0  0
   39.0914   30.5572   62.3431 H   0  0  0  0  0  0  0  0  0  0  0  0
   40.6270   31.1710   63.6451 H   0  0  0  0  0  0  0  0  0  0  0  0
   41.4207   30.1936   62.3639 H   0  0  0  0  0  0  0  0  0  0  0  0
   41.5902   31.9819   62.3639 H   0  0  0  0  0  0  0  0  0  0  0  0
   37.9550   30.6880   60.8890 H   0  0  0  0  0  0  0  0  0  0  0  0
   35.8030   35.6810   62.2140 H   0  0  0  0  0  0  0  0  0  0  0  0
   35.0815   37.4384   63.2894 H   0  0  0  0  0  0  0  0  0  0  0  0
   36.6747   37.8089   63.8764 H   0  0  0  0  0  0  0  0  0  0  0  0
   35.2684   38.8628   61.6794 H   0  0  0  0  0  0  0  0  0  0  0  0
   36.9011   39.2833   62.2211 H   0  0  0  0  0  0  0  0  0  0  0  0
   37.6480   38.1630   60.4320 H   0  0  0  0  0  0  0  0  0  0  0  0
  1  2  1  0
  2  3  1  0
  2  4  1  0
  4  5  1  0
  5  6  1  0
  6  7  1  0
  6  8  1  0
  8  9  1  0
  9 10  1  0
 10 11  1  0
  9 12  1  0
 12 13  1  0
 13 14  1  0
 14 15  1  0
 15 16  1  0
 16 17  1  0
 17 18  1  0
 18 19  1  0
 19 20  1  0
 19 21  1  0
 21 22  1  0
 22 23  2  0
 23 24  1  0
 24 25  2  0
 25 26  1  0
 26 27  2  0
 27 28  1  0
 15 29  1  0
 29 30  1  0
 30 31  1  0
 31 32  1  0
 32 33  1  0
 32 34  1  0
  5 35  1  0
 35 36  1  0
 36 37  1  0
 37 38  1  0
 38 39  1  0
 34 13  1  0
 39 35  1  0
 28 18  1  0
 34 31  1  0
 28 22  1  0
  1 40  1  0
  1 41  1  0
  1 42  1  0
  2 43  1  0
  3 44  1  0
  3 45  1  0
  3 46  1  0
  4 47  1  0
  4 48  1  0
  5 49  1  6
  6 50  1  6
  7 51  1  0
  8 52  1  0
  8 53  1  0
  9 54  1  6
 10 55  1  0
 10 56  1  0
 11 57  1  0
 12 58  1  0
 12 59  1  0
 13 60  1  6
 14 61  1  0
 14 62  1  0
 15 63  1  1
 16 64  1  0
 16 65  1  0
 17 66  1  0
 17 67  1  0
 18 68  1  1
 19 69  1  6
 20 70  1  0
 23 71  1  0
 24 72  1  0
 25 73  1  0
 26 74  1  0
 27 75  1  0
 28 76  1  1
 29 77  1  0
 29 78  1  0
 30 79  1  0
 30 80  1  0
 31 81  1  6
 32 82  1  6
 33 83  1  0
 33 84  1  0
 33 85  1  0
 34 86  1  1
 36 87  1  0
 37 88  1  0
 37 89  1  0
 38 90  1  0
 38 91  1  0
 39 92  1  0
M  CHG  3   8   1  16   1  34   1
M  END
>  <docking_score>  (8) 
-10.47

>  <plif_similarity>  (8) 
0.222

$$$$
DiffSBDD_18
     RDKit          3D

 70 71  0  0  0  0  0  0  0  0999 V2000
   39.8410   28.4790   50.6760 C   0  0  0  0  0  0  0  0  0  0  0  0
   39.1880   27.5710   51.2610 C   0  0  0  0  0  0  0  0  0  0  0  0
   39.3430   27.1700   52.5190 C   0  0  0  0  0  0  0  0  0  0  0  0
   38.3290   27.3700   53.8700 S   0  0  1  0  0  4  0  0  0  0  0  0
   36.8990   26.6580   53.6890 O   0  0  0  0  0  0  0  0  0  0  0  0
   38.9610   26.9310   55.0850 C   0  0  0  0  0  0  0  0  0  0  0  0
   39.5110   26.4640   56.4480 C   0  0  0  0  0  0  0  0  0  0  0  0
   39.0600   25.2070   56.5340 C   0  0  0  0  0  0  0  0  0  0  0  0
   40.3560   26.9210   57.5690 C   0  0  0  0  0  0  0  0  0  0  0  0
   40.5480   28.0770   58.1420 C   0  0  0  0  0  0  0  0  0  0  0  0
   41.6740   28.5300   58.6240 O   0  0  0  0  0  0  0  0  0  0  0  0
   39.3880   28.8910   58.3380 N   0  0  0  0  0  0  0  0  0  0  0  0
   38.7890   29.2630   59.3490 C   0  0  0  0  0  0  0  0  0  0  0  0
   39.0280   28.8660   60.6770 C   0  0  0  0  0  0  0  0  0  0  0  0
   37.6720   30.2210   59.2950 C   0  0  0  0  0  0  0  0  0  0  0  0
   36.6530   29.5350   58.9480 C   0  0  0  0  0  0  0  0  0  0  0  0
   38.6630   30.9760   58.0790 C   0  0  0  0  0  0  0  0  0  0  0  0
   37.8640   31.4210   60.1130 C   0  0  1  0  0  0  0  0  0  0  0  0
   36.9310   31.3020   61.1220 O   0  0  0  0  0  0  0  0  0  0  0  0
   38.7790   32.5080   60.4140 C   0  0  0  0  0  0  0  0  0  0  0  0
   39.8190   32.2210   61.2460 C   0  0  0  0  0  0  0  0  0  0  0  0
   40.5670   33.3240   61.7840 C   0  0  0  0  0  0  0  0  0  0  0  0
   41.9990   33.0220   62.6230 Cl  0  0  0  0  0  0  0  0  0  0  0  0
   40.0820   34.6570   61.5910 C   0  0  0  0  0  0  0  0  0  0  0  0
   40.6810   35.8120   62.3180 C   0  0  0  0  0  0  0  0  0  0  0  0
   39.0460   34.9010   60.6680 C   0  0  0  0  0  0  0  0  0  0  0  0
   38.4210   33.8450   60.0710 C   0  0  0  0  0  0  0  0  0  0  0  0
   37.4190   34.1030   59.0420 C   0  0  0  0  0  0  0  0  0  0  0  0
   38.2450   28.9600   54.2570 C   0  0  0  0  0  0  0  0  0  0  0  0
   39.4620   29.5860   54.2340 C   0  0  0  0  0  0  0  0  0  0  0  0
   39.4970   30.8900   54.5620 C   0  0  0  0  0  0  0  0  0  0  0  0
   38.3480   31.4050   54.7750 C   0  0  0  0  0  0  0  0  0  0  0  0
   37.1610   30.8170   54.9500 C   0  0  0  0  0  0  0  0  0  0  0  0
   37.1710   29.5720   54.6630 C   0  0  0  0  0  0  0  0  0  0  0  0
   39.6222   28.7246   49.6263 H   0  0  0  0  0  0  0  0  0  0  0  0
   40.6289   29.0247   51.2158 H   0  0  0  0  0  0  0  0  0  0  0  0
   38.4129   27.0602   50.6707 H   0  0  0  0  0  0  0  0  0  0  0  0
   39.4683   26.0801   52.4383 H   0  0  0  0  0  0  0  0  0  0  0  0
   40.1107   27.9028   52.8080 H   0  0  0  0  0  0  0  0  0  0  0  0
   37.0080   25.8280   53.1600 H   0  0  0  0  0  0  0  0  0  0  0  0
   39.3983   26.0589   54.5768 H   0  0  0  0  0  0  0  0  0  0  0  0
   39.1289   27.9784   55.3761 H   0  0  0  0  0  0  0  0  0  0  0  0
   39.2958   24.5974   57.4188 H   0  0  0  0  0  0  0  0  0  0  0  0
   38.4535   24.7834   55.7199 H   0  0  0  0  0  0  0  0  0  0  0  0
   40.0320   26.2805   58.4025 H   0  0  0  0  0  0  0  0  0  0  0  0
   41.2958   26.9283   56.9975 H   0  0  0  0  0  0  0  0  0  0  0  0
   38.5853   29.6014   61.3649 H   0  0  0  0  0  0  0  0  0  0  0  0
   38.5733   27.8798   60.8524 H   0  0  0  0  0  0  0  0  0  0  0  0
   40.1123   28.8063   60.8524 H   0  0  0  0  0  0  0  0  0  0  0  0
   36.1264   29.1805   59.8464 H   0  0  0  0  0  0  0  0  0  0  0  0
   35.9757   30.1617   58.3493 H   0  0  0  0  0  0  0  0  0  0  0  0
   36.9788   28.6716   58.3493 H   0  0  0  0  0  0  0  0  0  0  0  0
   39.4479   31.5740   58.5651 H   0  0  0  0  0  0  0  0  0  0  0  0
   39.1279   30.2011   57.4518 H   0  0  0  0  0  0  0  0  0  0  0  0
   38.0393   31.6299   57.4518 H   0  0  0  0  0  0  0  0  0  0  0  0
   38.2996   31.8064   59.1793 H   0  0  0  0  0  0  0  0  0  0  0  0
   37.1450   30.5110   61.6770 H   0  0  0  0  0  0  0  0  0  0  0  0
   40.0771   31.1816   61.4971 H   0  0  0  0  0  0  0  0  0  0  0  0
   40.5955   35.6471   63.4022 H   0  0  0  0  0  0  0  0  0  0  0  0
   41.7421   35.9072   62.0442 H   0  0  0  0  0  0  0  0  0  0  0  0
   40.1475   36.7342   62.0442 H   0  0  0  0  0  0  0  0  0  0  0  0
   38.7441   35.9319   60.4311 H   0  0  0  0  0  0  0  0  0  0  0  0
   36.4590   34.3502   59.5188 H   0  0  0  0  0  0  0  0  0  0  0  0
   37.7453   34.9464   58.4158 H   0  0  0  0  0  0  0  0  0  0  0  0
   37.2974   33.2069   58.4158 H   0  0  0  0  0  0  0  0  0  0  0  0
   40.3776   29.0427   53.9575 H   0  0  0  0  0  0  0  0  0  0  0  0
   40.4331   31.4625   54.6399 H   0  0  0  0  0  0  0  0  0  0  0  0
   38.3332   32.5039   54.8217 H   0  0  0  0  0  0  0  0  0  0  0  0
   36.2667   31.3502   55.3048 H   0  0  0  0  0  0  0  0  0  0  0  0
   36.2385   28.9971   54.7627 H   0  0  0  0  0  0  0  0  0  0  0  0
  1  2  2  0
  2  3  1  0
  3  4  1  0
  4  5  1  6
  4  6  1  0
  6  7  1  0
  7  8  2  0
  7  9  1  0
  9 10  1  0
 10 11  2  0
 10 12  1  0
 12 13  2  3
 13 14  1  0
 13 15  1  0
 15 16  1  0
 15 17  1  0
 15 18  1  0
 18 19  1  0
 18 20  1  0
 20 21  1  0
 21 22  2  0
 22 23  1  0
 22 24  1  0
 24 25  1  0
 24 26  2  0
 26 27  1  0
 27 28  1  0
  4 29  1  0
 29 30  2  0
 30 31  1  0
 31 32  2  0
 32 33  1  0
 33 34  2  0
 27 20  2  0
 34 29  1  0
  1 35  1  0
  1 36  1  0
  2 37  1  0
  3 38  1  0
  3 39  1  0
  5 40  1  0
  6 41  1  0
  6 42  1  0
  8 43  1  0
  8 44  1  0
  9 45  1  0
  9 46  1  0
 14 47  1  0
 14 48  1  0
 14 49  1  0
 16 50  1  0
 16 51  1  0
 16 52  1  0
 17 53  1  0
 17 54  1  0
 17 55  1  0
 18 56  1  6
 19 57  1  0
 21 58  1  0
 25 59  1  0
 25 60  1  0
 25 61  1  0
 26 62  1  0
 28 63  1  0
 28 64  1  0
 28 65  1  0
 30 66  1  0
 31 67  1  0
 32 68  1  0
 33 69  1  0
 34 70  1  0
M  END
>  <docking_score>  (9) 
-9.745

>  <plif_similarity>  (9) 
0.444

$$$$
DiffSBDD_19
     RDKit          3D

 69 71  0  0  0  0  0  0  0  0999 V2000
   36.7670   24.1200   55.4590 C   0  0  0  0  0  0  0  0  0  0  0  0
   37.9620   24.4780   56.6300 O   0  0  0  0  0  0  0  0  0  0  0  0
   39.0200   25.2790   56.1930 C   0  0  2  0  0  0  0  0  0  0  0  0
   40.0410   24.8960   57.1080 O   0  0  0  0  0  0  0  0  0  0  0  0
   39.1380   26.5890   56.0550 C   0  0  0  0  0  0  0  0  0  0  0  0
   38.4680   27.6040   55.8870 N   0  0  2  0  0  0  0  0  0  0  0  0
   37.4930   28.6650   55.3730 C   0  0  0  0  0  0  0  0  0  0  0  0
   38.2910   29.1620   54.2910 C   0  0  0  0  0  0  0  0  0  0  0  0
   38.1910   28.1930   53.1670 C   0  0  0  0  0  0  0  0  0  0  0  0
   38.9250   28.2530   52.1160 C   0  0  0  0  0  0  0  0  0  0  0  0
   39.6360   29.3760   52.0360 C   0  0  0  0  0  0  0  0  0  0  0  0
   40.2250   29.5770   50.8420 C   0  0  0  0  0  0  0  0  0  0  0  0
   39.8190   28.8030   49.7860 F   0  0  0  0  0  0  0  0  0  0  0  0
   41.2810   30.5130   50.6930 F   0  0  0  0  0  0  0  0  0  0  0  0
   39.8050   30.4380   52.9110 C   0  0  0  0  0  0  0  0  0  0  0  0
   39.1430   30.2520   54.2110 C   0  0  0  0  0  0  0  0  0  0  0  0
   39.4680   31.2060   55.1550 C   0  0  0  0  0  0  0  0  0  0  0  0
   38.6970   27.9490   57.4340 C   0  0  1  0  0  0  0  0  0  0  0  0
   39.9290   28.7340   57.6720 C   0  0  0  0  0  0  0  0  0  0  0  0
   39.6030   29.6090   58.7980 C   0  0  0  0  0  0  0  0  0  0  0  0
   38.2880   29.7720   58.9330 C   0  0  1  0  0  0  0  0  0  0  0  0
   37.7100   30.7920   59.4520 N   0  0  0  0  0  0  0  0  0  0  0  0
   37.6150   31.8150   59.4590 N   0  0  0  0  0  0  0  0  0  0  0  0
   38.1940   32.8940   58.8350 C   0  0  0  0  0  0  0  0  0  0  0  0
   37.8210   33.9650   59.9130 C   0  0  1  0  0  0  0  0  0  0  0  0
   37.0750   35.1740   60.0240 N   0  0  0  0  0  0  0  0  0  0  0  0
   37.2120   36.3790   59.7510 C   0  0  0  0  0  0  0  0  0  0  0  0
   36.4710   36.6470   59.2650 O   0  0  0  0  0  0  0  0  0  0  0  0
   36.7970   33.2750   60.8190 C   0  0  0  0  0  0  0  0  0  0  0  0
   35.9620   33.8950   61.5310 O   0  0  0  0  0  0  0  0  0  0  0  0
   36.9250   31.9350   60.3880 N   0  0  0  0  0  0  0  0  0  0  0  0
   37.5220   28.4890   57.8360 C   0  0  1  0  0  0  0  0  0  0  0  0
   36.9520   29.7690   57.5450 C   0  0  0  0  0  0  0  0  0  0  0  0
   35.8310   23.8396   55.9642 H   0  0  0  0  0  0  0  0  0  0  0  0
   36.5931   25.0055   54.8300 H   0  0  0  0  0  0  0  0  0  0  0  0
   37.1086   23.2848   54.8300 H   0  0  0  0  0  0  0  0  0  0  0  0
   38.9575   25.0907   55.1110 H   0  0  0  0  0  0  0  0  0  0  0  0
   40.7830   24.4660   56.6140 H   0  0  0  0  0  0  0  0  0  0  0  0
   39.6808   26.8476   56.9761 H   0  0  0  0  0  0  0  0  0  0  0  0
   39.3277   26.4934   54.9757 H   0  0  0  0  0  0  0  0  0  0  0  0
   37.6740   26.9980   56.1400 H   0  0  0  0  0  0  0  0  0  0  0  0
   36.5459   28.2269   55.0252 H   0  0  0  0  0  0  0  0  0  0  0  0
   37.1595   29.4112   56.1092 H   0  0  0  0  0  0  0  0  0  0  0  0
   37.4499   27.3834   53.2404 H   0  0  0  0  0  0  0  0  0  0  0  0
   38.9630   27.4570   51.3577 H   0  0  0  0  0  0  0  0  0  0  0  0
   40.9920   28.8300   51.0946 H   0  0  0  0  0  0  0  0  0  0  0  0
   40.3824   31.3388   52.6558 H   0  0  0  0  0  0  0  0  0  0  0  0
   39.3257   30.7882   56.1626 H   0  0  0  0  0  0  0  0  0  0  0  0
   40.5188   31.5052   55.0272 H   0  0  0  0  0  0  0  0  0  0  0  0
   38.8184   32.0845   55.0272 H   0  0  0  0  0  0  0  0  0  0  0  0
   38.9163   27.0710   58.0593 H   0  0  0  0  0  0  0  0  0  0  0  0
   40.7681   28.0702   57.9274 H   0  0  0  0  0  0  0  0  0  0  0  0
   40.2385   29.3010   56.7817 H   0  0  0  0  0  0  0  0  0  0  0  0
   40.0035   29.1652   59.7214 H   0  0  0  0  0  0  0  0  0  0  0  0
   40.0519   30.5948   58.6062 H   0  0  0  0  0  0  0  0  0  0  0  0
   37.8564   29.8383   59.9426 H   0  0  0  0  0  0  0  0  0  0  0  0
   36.7270   30.5310   59.2920 H   0  0  0  0  0  0  0  0  0  0  0  0
   39.2814   32.7775   58.7170 H   0  0  0  0  0  0  0  0  0  0  0  0
   37.8669   33.0994   57.8050 H   0  0  0  0  0  0  0  0  0  0  0  0
   38.8743   34.2815   59.9345 H   0  0  0  0  0  0  0  0  0  0  0  0
   36.2130   34.9380   59.5130 H   0  0  0  0  0  0  0  0  0  0  0  0
   37.2831   36.9665   60.6783 H   0  0  0  0  0  0  0  0  0  0  0  0
   38.1307   36.5374   59.1671 H   0  0  0  0  0  0  0  0  0  0  0  0
   36.1760   37.5390   59.5780 H   0  0  0  0  0  0  0  0  0  0  0  0
   36.4550   31.1430   60.8500 H   0  0  0  0  0  0  0  0  0  0  0  0
   36.8672   27.6078   57.7680 H   0  0  0  0  0  0  0  0  0  0  0  0
   36.7202   30.2896   58.4859 H   0  0  0  0  0  0  0  0  0  0  0  0
   37.6693   30.3660   56.9627 H   0  0  0  0  0  0  0  0  0  0  0  0
   36.0284   29.6353   56.9627 H   0  0  0  0  0  0  0  0  0  0  0  0
  1  2  1  0
  2  3  1  0
  3  4  1  0
  3  5  1  0
  5  6  1  0
  6  7  1  0
  7  8  1  0
  8  9  1  0
  9 10  2  0
 10 11  1  0
 11 12  1  0
 12 13  1  0
 12 14  1  0
 11 15  2  0
 15 16  1  0
 16 17  1  0
  6 18  1  0
 18 19  1  0
 19 20  1  0
 20 21  1  0
 21 22  1  0
 22 23  1  0
 23 24  1  0
 24 25  1  0
 25 26  1  0
 26 27  1  0
 27 28  1  0
 25 29  1  0
 29 30  2  0
 29 31  1  0
 21 32  1  0
 32 33  1  0
 16  8  2  0
 32 18  1  0
 31 23  1  0
  1 34  1  0
  1 35  1  0
  1 36  1  0
  3 37  1  6
  4 38  1  0
  5 39  1  0
  5 40  1  0
  6 41  1  6
  7 42  1  0
  7 43  1  0
  9 44  1  0
 10 45  1  0
 12 46  1  0
 15 47  1  0
 17 48  1  0
 17 49  1  0
 17 50  1  0
 18 51  1  1
 19 52  1  0
 19 53  1  0
 20 54  1  0
 20 55  1  0
 21 56  1  1
 22 57  1  0
 24 58  1  0
 24 59  1  0
 25 60  1  1
 26 61  1  0
 27 62  1  0
 27 63  1  0
 28 64  1  0
 31 65  1  0
 32 66  1  1
 33 67  1  0
 33 68  1  0
 33 69  1  0
M  CHG  1   6   1
M  END
>  <docking_score>  (10) 
-9.829

>  <plif_similarity>  (10) 
0.333

$$$$
DiffSBDD_21
     RDKit          3D

 51 54  0  0  0  0  0  0  0  0999 V2000
   38.7720   36.6520   61.9370 C   0  0  0  0  0  0  0  0  0  0  0  0
   38.5980   35.4830   60.9540 C   0  0  2  0  0  0  0  0  0  0  0  0
   37.2030   35.8840   60.0840 C   0  0  0  0  0  0  0  0  0  0  0  0
   36.7540   34.6630   59.2760 C   0  0  0  0  0  0  0  0  0  0  0  0
   38.0600   33.7910   59.2190 C   0  0  1  0  0  0  0  0  0  0  0  0
   38.7310   33.9980   60.6080 C   0  0  2  0  0  0  0  0  0  0  0  0
   39.1140   32.8300   61.3220 C   0  0  0  0  0  0  0  0  0  0  0  0
   38.0260   31.7440   61.3700 C   0  0  0  0  0  0  0  0  0  0  0  0
   37.3480   31.4980   60.0780 C   0  0  1  0  0  0  0  0  0  0  0  0
   35.9700   31.6260   60.1480 O   0  0  0  0  0  0  0  0  0  0  0  0
   37.8950   32.3240   58.9710 N   0  0  0  0  0  0  0  0  0  0  0  0
   38.6210   31.6910   57.7490 C   0  0  0  0  0  0  0  0  0  0  0  0
   38.6740   32.5970   56.4910 C   0  0  0  0  0  0  0  0  0  0  0  0
   38.6220   31.9000   55.1590 C   0  0  0  0  0  0  0  0  0  0  0  0
   38.4680   30.3890   54.8480 C   0  0  0  0  0  0  0  0  0  0  0  0
   38.7840   29.0470   53.8550 C   0  0  0  0  0  0  0  0  0  0  0  0
   38.8910   27.6020   53.3780 C   0  0  0  0  0  0  0  0  0  0  0  0
   39.4870   27.4290   51.9670 C   0  0  0  0  0  0  0  0  0  0  0  0
   39.9690   28.4210   51.2450 C   0  0  0  0  0  0  0  0  0  0  0  0
   39.8080   29.7780   51.6080 C   0  0  0  0  0  0  0  0  0  0  0  0
   40.1010   30.7190   50.3910 C   0  0  0  0  0  0  0  0  0  0  0  0
   41.3750   30.5370   49.9020 F   0  0  0  0  0  0  0  0  0  0  0  0
   39.2550   30.1140   52.8900 C   0  0  0  0  0  0  0  0  0  0  0  0
   38.0980   29.5760   56.1790 C   0  0  0  0  0  0  0  0  0  0  0  0
   38.2040   30.2340   57.6020 C   0  0  0  0  0  0  0  0  0  0  0  0
   38.7159   36.2749   62.9688 H   0  0  0  0  0  0  0  0  0  0  0  0
   39.7507   37.1266   61.7728 H   0  0  0  0  0  0  0  0  0  0  0  0
   37.9740   37.3910   61.7728 H   0  0  0  0  0  0  0  0  0  0  0  0
   39.6830   35.4358   61.1290 H   0  0  0  0  0  0  0  0  0  0  0  0
   36.4051   36.1791   60.7813 H   0  0  0  0  0  0  0  0  0  0  0  0
   37.4157   36.7227   59.4047 H   0  0  0  0  0  0  0  0  0  0  0  0
   35.9403   34.1266   59.7860 H   0  0  0  0  0  0  0  0  0  0  0  0
   36.3543   34.9179   58.2834 H   0  0  0  0  0  0  0  0  0  0  0  0
   38.6426   34.1245   58.3476 H   0  0  0  0  0  0  0  0  0  0  0  0
   39.6478   33.9406   61.2132 H   0  0  0  0  0  0  0  0  0  0  0  0
   40.0061   32.4054   60.8384 H   0  0  0  0  0  0  0  0  0  0  0  0
   39.3032   33.1385   62.3608 H   0  0  0  0  0  0  0  0  0  0  0  0
   38.4933   30.8036   61.6974 H   0  0  0  0  0  0  0  0  0  0  0  0
   37.2537   32.1050   62.0651 H   0  0  0  0  0  0  0  0  0  0  0  0
   37.5653   30.4447   59.8472 H   0  0  0  0  0  0  0  0  0  0  0  0
   35.6860   32.4290   59.6430 H   0  0  0  0  0  0  0  0  0  0  0  0
   38.7459   33.6919   56.5689 H   0  0  0  0  0  0  0  0  0  0  0  0
   38.7051   32.5561   54.2800 H   0  0  0  0  0  0  0  0  0  0  0  0
   38.5678   26.7494   53.9933 H   0  0  0  0  0  0  0  0  0  0  0  0
   39.5116   26.4169   51.5367 H   0  0  0  0  0  0  0  0  0  0  0  0
   40.5189   28.1834   50.3224 H   0  0  0  0  0  0  0  0  0  0  0  0
   39.3778   30.5028   49.5909 H   0  0  0  0  0  0  0  0  0  0  0  0
   40.0105   31.7605   50.7332 H   0  0  0  0  0  0  0  0  0  0  0  0
   39.1716   31.1724   53.1778 H   0  0  0  0  0  0  0  0  0  0  0  0
   37.7617   28.5321   56.0942 H   0  0  0  0  0  0  0  0  0  0  0  0
   37.9754   29.6381   58.4979 H   0  0  0  0  0  0  0  0  0  0  0  0
  1  2  1  0
  2  3  1  0
  3  4  1  0
  4  5  1  0
  5  6  1  0
  6  7  1  0
  7  8  1  0
  8  9  1  0
  9 10  1  0
  9 11  1  0
 11 12  1  0
 12 13  1  0
 13 14  2  0
 14 15  1  0
 15 16  1  0
 16 17  1  0
 17 18  2  0
 18 19  1  0
 19 20  2  0
 20 21  1  0
 21 22  1  0
 20 23  1  0
 15 24  2  0
 24 25  1  0
  6  2  1  0
 25 12  2  0
 11  5  1  0
 23 16  2  0
  1 26  1  0
  1 27  1  0
  1 28  1  0
  2 29  1  6
  3 30  1  0
  3 31  1  0
  4 32  1  0
  4 33  1  0
  5 34  1  6
  6 35  1  6
  7 36  1  0
  7 37  1  0
  8 38  1  0
  8 39  1  0
  9 40  1  6
 10 41  1  0
 13 42  1  0
 14 43  1  0
 17 44  1  0
 18 45  1  0
 19 46  1  0
 21 47  1  0
 21 48  1  0
 23 49  1  0
 24 50  1  0
 25 51  1  0
M  END
>  <docking_score>  (11) 
-11.822

>  <plif_similarity>  (11) 
0.444

$$$$
DiffSBDD_22
     RDKit          3D

 69 72  0  0  0  0  0  0  0  0999 V2000
   38.4140   32.1510   55.9680 C   0  0  0  0  0  0  0  0  0  0  0  0
   38.3130   31.2240   54.9890 C   0  0  0  0  0  0  0  0  0  0  0  0
   39.6200   29.9620   55.2040 S   0  0  0  0  0  0  0  0  0  0  0  0
   39.4040   29.3870   53.6630 C   0  0  0  0  0  0  0  0  0  0  0  0
   39.7340   30.3950   52.9910 C   0  0  0  0  0  0  0  0  0  0  0  0
   39.8280   30.9380   51.9240 N   0  0  0  0  0  0  0  0  0  0  0  0
   40.2180   30.1330   50.7780 C   0  0  0  0  0  0  0  0  0  0  0  0
   39.3050   29.0060   50.7650 N   0  0  0  0  0  0  0  0  0  0  0  0
   38.8040   28.2290   51.5860 C   0  0  0  0  0  0  0  0  0  0  0  0
   38.4130   27.1510   51.0640 O   0  0  0  0  0  0  0  0  0  0  0  0
   38.5450   28.1560   53.2450 C   0  0  2  0  0  0  0  0  0  0  0  0
   37.2470   28.2110   53.2790 C   0  0  0  0  0  0  0  0  0  0  0  0
   39.2230   27.1930   54.8020 C   0  0  0  0  0  0  0  0  0  0  0  0
   38.3760   26.0460   55.6440 C   0  0  0  0  0  0  0  0  0  0  0  0
   39.0850   26.3160   56.8830 C   0  0  2  0  0  0  0  0  0  0  0  0
   38.8450   26.0780   58.2300 O   0  0  0  0  0  0  0  0  0  0  0  0
   37.9600   27.2190   57.8630 C   0  0  1  0  0  0  0  0  0  0  0  0
   38.6240   28.3320   58.8660 C   0  0  0  0  0  0  0  0  0  0  0  0
   39.9240   28.1730   59.4520 C   0  0  0  0  0  0  0  0  0  0  0  0
   40.4300   29.2790   60.2580 C   0  0  0  0  0  0  0  0  0  0  0  0
   39.4980   30.3790   60.6160 C   0  0  0  0  0  0  0  0  0  0  0  0
   38.0750   30.4290   60.0290 C   0  0  0  0  0  0  0  0  0  0  0  0
   37.3020   31.7510   60.4100 C   0  0  2  0  0  0  0  0  0  0  0  0
   35.7640   31.9930   60.8160 C   0  0  0  0  0  0  0  0  0  0  0  0
   34.9950   31.7960   59.9200 O   0  0  0  0  0  0  0  0  0  0  0  0
   37.6070   32.8980   59.4940 O   0  0  0  0  0  0  0  0  0  0  0  0
   37.6600   34.2370   59.9260 C   0  0  0  0  0  0  0  0  0  0  0  0
   36.8560   35.2170   59.3990 C   0  0  0  0  0  0  0  0  0  0  0  0
   36.9660   36.5370   59.8430 C   0  0  0  0  0  0  0  0  0  0  0  0
   37.9020   36.8330   60.8530 C   0  0  0  0  0  0  0  0  0  0  0  0
   37.6750   37.9220   61.4160 C   0  0  0  0  0  0  0  0  0  0  0  0
   38.0000   39.3020   60.7540 N   0  0  0  0  0  0  0  0  0  0  0  0
   36.6230   37.5100   62.7570 O   0  0  0  0  0  0  0  0  0  0  0  0
   38.9090   35.8730   61.3050 C   0  0  0  0  0  0  0  0  0  0  0  0
   38.7380   34.5300   60.8920 C   0  0  0  0  0  0  0  0  0  0  0  0
   37.7410   29.4320   59.1740 C   0  0  0  0  0  0  0  0  0  0  0  0
   38.3601   31.6559   56.9488 H   0  0  0  0  0  0  0  0  0  0  0  0
   39.3749   32.6784   55.8759 H   0  0  0  0  0  0  0  0  0  0  0  0
   37.5892   32.8730   55.8759 H   0  0  0  0  0  0  0  0  0  0  0  0
   37.3258   30.7417   55.0416 H   0  0  0  0  0  0  0  0  0  0  0  0
   38.4323   31.7112   54.0100 H   0  0  0  0  0  0  0  0  0  0  0  0
   40.1164   31.1215   53.7231 H   0  0  0  0  0  0  0  0  0  0  0  0
   39.6370   31.9450   51.8240 H   0  0  0  0  0  0  0  0  0  0  0  0
   40.1229   30.7151   49.8495 H   0  0  0  0  0  0  0  0  0  0  0  0
   41.2664   29.8071   50.8470 H   0  0  0  0  0  0  0  0  0  0  0  0
   38.9870   28.7940   49.8080 H   0  0  0  0  0  0  0  0  0  0  0  0
   36.9079   28.2254   54.3253 H   0  0  0  0  0  0  0  0  0  0  0  0
   36.9053   29.1244   52.7702 H   0  0  0  0  0  0  0  0  0  0  0  0
   36.8292   27.3298   52.7702 H   0  0  0  0  0  0  0  0  0  0  0  0
   40.1404   26.6908   54.4613 H   0  0  0  0  0  0  0  0  0  0  0  0
   39.2537   28.0051   55.5433 H   0  0  0  0  0  0  0  0  0  0  0  0
   37.2978   26.2557   55.7035 H   0  0  0  0  0  0  0  0  0  0  0  0
   38.3573   25.0154   55.2600 H   0  0  0  0  0  0  0  0  0  0  0  0
   40.0552   26.1967   56.3785 H   0  0  0  0  0  0  0  0  0  0  0  0
   36.9420   27.5932   57.6795 H   0  0  0  0  0  0  0  0  0  0  0  0
   40.5137   27.2569   59.3002 H   0  0  0  0  0  0  0  0  0  0  0  0
   41.4776   29.2979   60.5929 H   0  0  0  0  0  0  0  0  0  0  0  0
   39.8282   31.1672   61.3086 H   0  0  0  0  0  0  0  0  0  0  0  0
   37.7399   31.6213   61.4107 H   0  0  0  0  0  0  0  0  0  0  0  0
   35.5126   31.3155   61.6453 H   0  0  0  0  0  0  0  0  0  0  0  0
   35.6674   33.0521   61.0969 H   0  0  0  0  0  0  0  0  0  0  0  0
   34.0680   31.8530   60.2630 H   0  0  0  0  0  0  0  0  0  0  0  0
   36.1204   34.9613   58.6221 H   0  0  0  0  0  0  0  0  0  0  0  0
   36.3349   37.3286   59.4128 H   0  0  0  0  0  0  0  0  0  0  0  0
   37.7940   40.1770   61.2590 H   0  0  0  0  0  0  0  0  0  0  0  0
   38.4190   39.3360   59.8140 H   0  0  0  0  0  0  0  0  0  0  0  0
   39.7572   36.1797   61.9347 H   0  0  0  0  0  0  0  0  0  0  0  0
   39.3871   33.7303   61.2781 H   0  0  0  0  0  0  0  0  0  0  0  0
   36.7523   29.4622   58.6928 H   0  0  0  0  0  0  0  0  0  0  0  0
  1  2  1  0
  2  3  1  0
  3  4  1  0
  4  5  2  0
  5  6  1  0
  6  7  1  0
  7  8  1  0
  8  9  1  0
  9 10  2  0
  9 11  1  0
 11 12  1  6
 11 13  1  0
 13 14  1  0
 14 15  1  0
 15 16  1  0
 16 17  1  0
 17 18  1  0
 18 19  1  0
 19 20  2  0
 20 21  1  0
 21 22  2  0
 22 23  1  0
 23 24  1  0
 24 25  1  0
 23 26  1  0
 26 27  1  0
 27 28  1  0
 28 29  2  0
 29 30  1  0
 30 31  1  0
 31 32  1  0
 31 33  2  0
 30 34  2  0
 34 35  1  0
 22 36  1  0
 11  4  1  0
 17 15  1  0
 36 18  2  0
 35 27  2  0
  1 37  1  0
  1 38  1  0
  1 39  1  0
  2 40  1  0
  2 41  1  0
  5 42  1  0
  6 43  1  0
  7 44  1  0
  7 45  1  0
  8 46  1  0
 12 47  1  0
 12 48  1  0
 12 49  1  0
 13 50  1  0
 13 51  1  0
 14 52  1  0
 14 53  1  0
 15 54  1  6
 17 55  1  6
 19 56  1  0
 20 57  1  0
 21 58  1  0
 23 59  1  1
 24 60  1  0
 24 61  1  0
 25 62  1  0
 28 63  1  0
 29 64  1  0
 32 65  1  0
 32 66  1  0
 34 67  1  0
 35 68  1  0
 36 69  1  0
M  END
>  <docking_score>  (12) 
-11.074

>  <plif_similarity>  (12) 
0.222

$$$$
DiffSBDD_23
     RDKit          3D

 19 19  0  0  0  0  0  0  0  0999 V2000
   40.8770   30.4030   50.0900 C   0  0  0  0  0  0  0  0  0  0  0  0
   40.0890   29.9020   51.1780 C   0  0  0  0  0  0  0  0  0  0  0  0
   39.4390   28.6720   50.9000 C   0  0  0  0  0  0  0  0  0  0  0  0
   38.6670   27.9690   51.8870 C   0  0  0  0  0  0  0  0  0  0  0  0
   38.3420   26.7400   51.4710 O   0  0  0  0  0  0  0  0  0  0  0  0
   38.5020   28.6580   53.2370 C   0  0  0  0  0  0  0  0  0  0  0  0
   37.7050   28.0090   54.1440 C   0  0  0  0  0  0  0  0  0  0  0  0
   39.1180   29.8990   53.3540 C   0  0  0  0  0  0  0  0  0  0  0  0
   38.7730   30.7950   55.0160 S   0  0  0  0  0  0  0  0  0  0  0  0
   39.8570   30.5190   52.4620 C   0  0  0  0  0  0  0  0  0  0  0  0
   41.7426   30.9534   50.4872 H   0  0  0  0  0  0  0  0  0  0  0  0
   41.2283   29.5621   49.4740 H   0  0  0  0  0  0  0  0  0  0  0  0
   40.2646   31.0779   49.4740 H   0  0  0  0  0  0  0  0  0  0  0  0
   39.5293   28.2408   49.8921 H   0  0  0  0  0  0  0  0  0  0  0  0
   37.5560   26.6080   50.8830 H   0  0  0  0  0  0  0  0  0  0  0  0
   38.0239   28.2687   55.1642 H   0  0  0  0  0  0  0  0  0  0  0  0
   36.6586   28.3152   53.9978 H   0  0  0  0  0  0  0  0  0  0  0  0
   37.7929   26.9223   53.9978 H   0  0  0  0  0  0  0  0  0  0  0  0
   40.2957   31.5011   52.6921 H   0  0  0  0  0  0  0  0  0  0  0  0
  1  2  1  0
  2  3  2  0
  3  4  1  0
  4  5  1  0
  4  6  2  0
  6  7  1  0
  6  8  1  0
  8  9  1  0
  8 10  2  0
 10  2  1  0
  1 11  1  0
  1 12  1  0
  1 13  1  0
  3 14  1  0
  5 15  1  0
  7 16  1  0
  7 17  1  0
  7 18  1  0
 10 19  1  0
M  CHG  1   9  -1
M  END
>  <docking_score>  (13) 
-6.46

>  <plif_similarity>  (13) 
0.444

$$$$
DiffSBDD_24
     RDKit          3D

 80 83  0  0  0  0  0  0  0  0999 V2000
   38.4750   37.0160   62.0430 C   0  0  0  0  0  0  0  0  0  0  0  0
   37.1300   37.0720   61.5290 C   0  0  0  0  0  0  0  0  0  0  0  0
   37.1450   36.6090   60.1360 C   0  0  0  0  0  0  0  0  0  0  0  0
   36.4430   36.8300   59.0930 O   0  0  0  0  0  0  0  0  0  0  0  0
   37.9950   35.7340   60.1910 N   0  0  0  0  0  0  0  0  0  0  0  0
   37.6370   34.3090   59.5070 C   0  0  0  0  0  0  0  0  0  0  0  0
   38.0240   33.5290   60.7200 C   0  0  0  0  0  0  0  0  0  0  0  0
   38.3000   32.1620   59.7830 C   0  0  1  0  0  0  0  0  0  0  0  0
   37.5260   32.0500   58.5860 O   0  0  0  0  0  0  0  0  0  0  0  0
   37.6790   31.1830   60.9720 C   0  0  0  0  0  0  0  0  0  0  0  0
   38.7220   30.7410   60.1350 C   0  0  2  0  0  0  0  0  0  0  0  0
   40.1500   30.6950   60.7210 C   0  0  0  0  0  0  0  0  0  0  0  0
   40.5390   29.4910   61.2410 C   0  0  0  0  0  0  0  0  0  0  0  0
   39.2090   28.5950   61.2110 C   0  0  0  0  0  0  0  0  0  0  0  0
   39.1300   28.3980   59.6950 C   0  0  2  0  0  0  0  0  0  0  0  0
   39.7600   27.3210   58.8110 C   0  0  0  0  0  0  0  0  0  0  0  0
   38.4820   26.3150   58.5210 C   0  0  0  0  0  0  0  0  0  0  0  0
   39.0400   25.1430   57.5000 C   0  0  0  0  0  0  0  0  0  0  0  0
   38.4350   25.4770   56.1380 C   0  0  1  0  0  0  0  0  0  0  0  0
   37.0410   24.9220   56.2880 O   0  0  0  0  0  0  0  0  0  0  0  0
   38.3250   26.4390   55.4190 C   0  0  1  0  0  0  0  0  0  0  0  0
   37.7420   27.4130   54.9030 C   0  0  0  0  0  0  0  0  0  0  0  0
   38.7970   28.2200   54.1890 C   0  0  2  0  0  0  0  0  0  0  0  0
   38.1660   29.6120   54.1640 C   0  0  0  0  0  0  0  0  0  0  0  0
   39.4430   30.7280   54.0640 C   0  0  0  0  0  0  0  0  0  0  0  0
   39.1490   27.2180   53.2070 C   0  0  1  0  0  0  0  0  0  0  0  0
   39.6300   27.5390   51.8280 C   0  0  0  0  0  0  0  0  0  0  0  0
   38.7680   27.1570   50.9970 O   0  0  0  0  0  0  0  0  0  0  0  0
   39.8620   25.9760   53.7420 C   0  0  0  0  0  0  0  0  0  0  0  0
   39.7160   25.8700   55.3130 C   0  0  2  0  0  0  0  0  0  0  0  0
   40.9540   26.2590   55.6770 O   0  0  0  0  0  0  0  0  0  0  0  0
   39.3080   29.7900   59.1210 C   0  0  1  0  0  0  0  0  0  0  0  0
   38.7530   29.9640   57.6150 C   0  0  0  0  0  0  0  0  0  0  0  0
   38.4476   37.0171   63.1427 H   0  0  0  0  0  0  0  0  0  0  0  0
   38.9647   36.0967   61.6894 H   0  0  0  0  0  0  0  0  0  0  0  0
   39.0394   37.8914   61.6894 H   0  0  0  0  0  0  0  0  0  0  0  0
   36.4759   36.4223   62.1291 H   0  0  0  0  0  0  0  0  0  0  0  0
   36.7493   38.1028   61.5799 H   0  0  0  0  0  0  0  0  0  0  0  0
   38.9030   35.8950   60.6510 H   0  0  0  0  0  0  0  0  0  0  0  0
   36.5737   34.2068   59.2443 H   0  0  0  0  0  0  0  0  0  0  0  0
   38.1068   34.0541   58.5456 H   0  0  0  0  0  0  0  0  0  0  0  0
   38.9223   33.9105   61.2275 H   0  0  0  0  0  0  0  0  0  0  0  0
   37.3407   33.4764   61.5804 H   0  0  0  0  0  0  0  0  0  0  0  0
   37.4820   31.1000   58.3100 H   0  0  0  0  0  0  0  0  0  0  0  0
   37.8762   31.4057   62.0310 H   0  0  0  0  0  0  0  0  0  0  0  0
   36.6785   30.8132   61.2407 H   0  0  0  0  0  0  0  0  0  0  0  0
   40.8536   30.9595   59.9179 H   0  0  0  0  0  0  0  0  0  0  0  0
   40.1508   31.4006   61.5649 H   0  0  0  0  0  0  0  0  0  0  0  0
   41.3281   29.0371   60.6236 H   0  0  0  0  0  0  0  0  0  0  0  0
   40.9570   29.5872   62.2539 H   0  0  0  0  0  0  0  0  0  0  0  0
   39.3331   27.6443   61.7502 H   0  0  0  0  0  0  0  0  0  0  0  0
   38.3198   29.0288   61.6918 H   0  0  0  0  0  0  0  0  0  0  0  0
   38.1836   27.8401   59.6402 H   0  0  0  0  0  0  0  0  0  0  0  0
   40.1497   27.7502   57.8762 H   0  0  0  0  0  0  0  0  0  0  0  0
   40.6214   26.8178   59.2745 H   0  0  0  0  0  0  0  0  0  0  0  0
   38.1297   25.8655   59.4611 H   0  0  0  0  0  0  0  0  0  0  0  0
   37.6348   26.8605   58.0798 H   0  0  0  0  0  0  0  0  0  0  0  0
   40.1386   25.1660   57.4501 H   0  0  0  0  0  0  0  0  0  0  0  0
   38.7588   24.1349   57.8386 H   0  0  0  0  0  0  0  0  0  0  0  0
   36.6880   25.1550   57.1830 H   0  0  0  0  0  0  0  0  0  0  0  0
   37.9605   25.7912   54.6081 H   0  0  0  0  0  0  0  0  0  0  0  0
   36.9822   27.0648   54.1878 H   0  0  0  0  0  0  0  0  0  0  0  0
   37.2299   28.0176   55.6660 H   0  0  0  0  0  0  0  0  0  0  0  0
   39.8019   28.5868   54.4454 H   0  0  0  0  0  0  0  0  0  0  0  0
   37.5057   29.7128   53.2901 H   0  0  0  0  0  0  0  0  0  0  0  0
   37.5590   29.7864   55.0646 H   0  0  0  0  0  0  0  0  0  0  0  0
   39.7646   31.0090   55.0777 H   0  0  0  0  0  0  0  0  0  0  0  0
   40.2867   30.2725   53.5248 H   0  0  0  0  0  0  0  0  0  0  0  0
   39.1046   31.6251   53.5248 H   0  0  0  0  0  0  0  0  0  0  0  0
   38.0850   27.0325   52.9987 H   0  0  0  0  0  0  0  0  0  0  0  0
   39.7794   28.6246   51.7324 H   0  0  0  0  0  0  0  0  0  0  0  0
   40.5844   27.0263   51.6374 H   0  0  0  0  0  0  0  0  0  0  0  0
   38.0920   26.5970   51.4550 H   0  0  0  0  0  0  0  0  0  0  0  0
   39.4213   25.0809   53.2788 H   0  0  0  0  0  0  0  0  0  0  0  0
   40.9310   26.0521   53.4942 H   0  0  0  0  0  0  0  0  0  0  0  0
   41.6240   25.6540   55.2690 H   0  0  0  0  0  0  0  0  0  0  0  0
   40.3744   30.0159   58.9731 H   0  0  0  0  0  0  0  0  0  0  0  0
   37.7038   30.2929   57.6466 H   0  0  0  0  0  0  0  0  0  0  0  0
   39.3572   30.7158   57.0861 H   0  0  0  0  0  0  0  0  0  0  0  0
   38.8198   29.0018   57.0861 H   0  0  0  0  0  0  0  0  0  0  0  0
  1  2  1  0
  2  3  1  0
  3  4  2  0
  3  5  1  0
  5  6  1  0
  6  7  1  0
  7  8  1  0
  8  9  1  6
  8 10  1  0
 11 10  1  1
 11 12  1  0
 12 13  1  0
 13 14  1  0
 14 15  1  0
 15 16  1  0
 16 17  1  0
 17 18  1  0
 18 19  1  0
 19 20  1  6
 19 21  1  0
 21 22  1  0
 22 23  1  0
 23 24  1  0
 24 25  1  0
 23 26  1  0
 26 27  1  0
 27 28  1  0
 26 29  1  0
 29 30  1  0
 30 31  1  6
 15 32  1  0
 32 33  1  0
 11  8  1  0
 30 19  1  0
 32 11  1  0
 30 21  1  0
  1 34  1  0
  1 35  1  0
  1 36  1  0
  2 37  1  0
  2 38  1  0
  5 39  1  0
  6 40  1  0
  6 41  1  0
  7 42  1  0
  7 43  1  0
  9 44  1  0
 10 45  1  0
 10 46  1  0
 12 47  1  0
 12 48  1  0
 13 49  1  0
 13 50  1  0
 14 51  1  0
 14 52  1  0
 15 53  1  1
 16 54  1  0
 16 55  1  0
 17 56  1  0
 17 57  1  0
 18 58  1  0
 18 59  1  0
 20 60  1  0
 21 61  1  6
 22 62  1  0
 22 63  1  0
 23 64  1  1
 24 65  1  0
 24 66  1  0
 25 67  1  0
 25 68  1  0
 25 69  1  0
 26 70  1  6
 27 71  1  0
 27 72  1  0
 28 73  1  0
 29 74  1  0
 29 75  1  0
 31 76  1  0
 32 77  1  6
 33 78  1  0
 33 79  1  0
 33 80  1  0
M  END
>  <docking_score>  (14) 
-9.69

>  <plif_similarity>  (14) 
0.333

$$$$
DiffSBDD_26
     RDKit          3D

 84 87  0  0  0  0  0  0  0  0999 V2000
   39.7730   27.8950   51.1870 C   0  0  0  0  0  0  0  0  0  0  0  0
   39.4430   29.3770   51.4550 C   0  0  0  0  0  0  0  0  0  0  0  0
   40.5010   30.2980   50.6890 C   0  0  0  0  0  0  0  0  0  0  0  0
   39.4560   29.6270   52.9850 C   0  0  0  0  0  0  0  0  0  0  0  0
   38.2560   29.4920   53.9100 C   0  0  0  0  0  0  0  0  0  0  0  0
   38.2820   28.7670   54.9300 C   0  0  1  0  0  0  0  0  0  0  0  0
   38.9830   27.4670   54.7040 C   0  0  0  0  0  0  0  0  0  0  0  0
   38.6540   26.4360   55.7620 C   0  0  1  0  0  0  0  0  0  0  0  0
   37.4780   25.6660   55.4170 C   0  0  0  0  0  0  0  0  0  0  0  0
   37.3560   24.7620   56.3770 C   0  0  0  0  0  0  0  0  0  0  0  0
   38.3160   24.3870   57.3620 C   0  0  0  0  0  0  0  0  0  0  0  0
   39.3660   25.0040   57.5070 N   0  0  0  0  0  0  0  0  0  0  0  0
   39.6310   26.0500   56.7490 C   0  0  0  0  0  0  0  0  0  0  0  0
   40.8210   26.6490   56.9000 O   0  0  0  0  0  0  0  0  0  0  0  0
   37.7380   29.4030   55.7880 O   0  0  0  0  0  0  0  0  0  0  0  0
   38.5840   29.9790   56.6940 N   0  0  0  0  0  0  0  0  0  0  0  0
   39.0320   31.4210   56.6590 C   0  0  0  0  0  0  0  0  0  0  0  0
   38.2780   32.1990   57.6510 C   0  0  0  0  0  0  0  0  0  0  0  0
   38.6210   31.9700   59.3160 C   0  0  0  0  0  0  0  0  0  0  0  0
   38.6280   32.0510   60.8520 C   0  0  0  0  0  0  0  0  0  0  0  0
   38.6000   33.3510   61.2110 C   0  0  2  0  0  0  0  0  0  0  0  0
   38.7980   34.3100   60.3550 C   0  0  0  0  0  0  0  0  0  0  0  0
   38.8730   35.8810   61.4870 C   0  0  2  0  0  0  0  0  0  0  0  0
   37.6840   36.2300   60.7160 N   0  0  0  0  0  0  0  0  0  0  0  0
   37.4710   36.8240   59.6330 C   0  0  0  0  0  0  0  0  0  0  0  0
   36.6180   36.8060   59.1500 O   0  0  0  0  0  0  0  0  0  0  0  0
   36.8720   36.5180   61.7410 C   0  0  0  0  0  0  0  0  0  0  0  0
   36.4240   38.0930   61.9980 C   0  0  0  0  0  0  0  0  0  0  0  0
   35.5640   37.9790   63.0940 O   0  0  0  0  0  0  0  0  0  0  0  0
   35.8440   37.0470   63.5340 O   0  0  0  0  0  0  0  0  0  0  0  0
   40.4810   35.5040   61.5360 C   0  0  0  0  0  0  0  0  0  0  0  0
   40.4850   34.3680   62.6700 C   0  0  2  0  0  0  0  0  0  0  0  0
   40.8650   33.4870   61.9260 C   0  0  1  0  0  0  0  0  0  0  0  0
   41.8340   32.3250   61.8250 C   0  0  0  0  0  0  0  0  0  0  0  0
   39.7310   33.2060   62.5150 N   0  0  2  0  0  0  0  0  0  0  0  0
   38.8590   30.4660   59.0020 C   0  0  0  0  0  0  0  0  0  0  0  0
   38.2290   29.6040   58.0720 C   0  0  0  0  0  0  0  0  0  0  0  0
   39.8907   27.3666   52.1446 H   0  0  0  0  0  0  0  0  0  0  0  0
   38.9552   27.4353   50.6126 H   0  0  0  0  0  0  0  0  0  0  0  0
   40.7086   27.8257   50.6126 H   0  0  0  0  0  0  0  0  0  0  0  0
   38.4415   29.6303   51.0770 H   0  0  0  0  0  0  0  0  0  0  0  0
   41.1186   30.8357   51.4235 H   0  0  0  0  0  0  0  0  0  0  0  0
   41.1460   29.6687   50.0582 H   0  0  0  0  0  0  0  0  0  0  0  0
   39.9666   31.0235   50.0582 H   0  0  0  0  0  0  0  0  0  0  0  0
   40.2125   28.9367   53.3866 H   0  0  0  0  0  0  0  0  0  0  0  0
   39.5923   30.7184   53.0021 H   0  0  0  0  0  0  0  0  0  0  0  0
   38.0219   30.5080   54.2606 H   0  0  0  0  0  0  0  0  0  0  0  0
   37.5310   28.9658   53.2717 H   0  0  0  0  0  0  0  0  0  0  0  0
   37.3302   28.3064   54.6269 H   0  0  0  0  0  0  0  0  0  0  0  0
   38.6840   27.0717   53.7220 H   0  0  0  0  0  0  0  0  0  0  0  0
   40.0650   27.6595   54.7519 H   0  0  0  0  0  0  0  0  0  0  0  0
   38.3416   26.8840   56.7168 H   0  0  0  0  0  0  0  0  0  0  0  0
   36.8243   25.8027   54.5429 H   0  0  0  0  0  0  0  0  0  0  0  0
   36.3921   24.2337   56.4198 H   0  0  0  0  0  0  0  0  0  0  0  0
   38.1096   23.5216   58.0089 H   0  0  0  0  0  0  0  0  0  0  0  0
   40.1058   31.4758   56.8911 H   0  0  0  0  0  0  0  0  0  0  0  0
   38.8486   31.8347   55.6564 H   0  0  0  0  0  0  0  0  0  0  0  0
   38.4524   33.2620   57.4284 H   0  0  0  0  0  0  0  0  0  0  0  0
   37.2443   31.8394   57.5408 H   0  0  0  0  0  0  0  0  0  0  0  0
   38.6791   33.0422   59.5549 H   0  0  0  0  0  0  0  0  0  0  0  0
   37.7439   31.5354   61.2550 H   0  0  0  0  0  0  0  0  0  0  0  0
   39.5323   31.5685   61.2513 H   0  0  0  0  0  0  0  0  0  0  0  0
   37.5891   33.7305   61.4209 H   0  0  0  0  0  0  0  0  0  0  0  0
   39.7434   34.1674   59.8110 H   0  0  0  0  0  0  0  0  0  0  0  0
   38.0223   34.3685   59.5773 H   0  0  0  0  0  0  0  0  0  0  0  0
   38.7755   36.5319   62.3683 H   0  0  0  0  0  0  0  0  0  0  0  0
   38.2965   37.4044   59.1951 H   0  0  0  0  0  0  0  0  0  0  0  0
   35.9476   35.9410   61.5910 H   0  0  0  0  0  0  0  0  0  0  0  0
   37.4714   36.2677   62.6287 H   0  0  0  0  0  0  0  0  0  0  0  0
   37.2944   38.7215   62.2375 H   0  0  0  0  0  0  0  0  0  0  0  0
   35.9618   38.5698   61.1211 H   0  0  0  0  0  0  0  0  0  0  0  0
   36.7930   37.0860   63.8150 H   0  0  0  0  0  0  0  0  0  0  0  0
   40.8357   35.1143   60.5704 H   0  0  0  0  0  0  0  0  0  0  0  0
   41.1442   36.3571   61.7416 H   0  0  0  0  0  0  0  0  0  0  0  0
   40.6358   34.9254   63.6063 H   0  0  0  0  0  0  0  0  0  0  0  0
   41.3768   33.7288   60.9828 H   0  0  0  0  0  0  0  0  0  0  0  0
   42.1125   31.9910   62.8354 H   0  0  0  0  0  0  0  0  0  0  0  0
   41.3564   31.4953   61.2832 H   0  0  0  0  0  0  0  0  0  0  0  0
   42.7360   32.6458   61.2832 H   0  0  0  0  0  0  0  0  0  0  0  0
   39.2840   32.5380   63.1590 H   0  0  0  0  0  0  0  0  0  0  0  0
   39.9232   30.4184   58.7277 H   0  0  0  0  0  0  0  0  0  0  0  0
   38.3840   30.0606   59.9075 H   0  0  0  0  0  0  0  0  0  0  0  0
   38.5538   28.5700   58.2602 H   0  0  0  0  0  0  0  0  0  0  0  0
   37.1389   29.6888   58.1925 H   0  0  0  0  0  0  0  0  0  0  0  0
  1  2  1  0
  2  3  1  0
  2  4  1  0
  4  5  1  0
  5  6  1  0
  6  7  1  0
  7  8  1  0
  8  9  1  0
  9 10  2  0
 10 11  1  0
 11 12  2  0
 12 13  1  0
 13 14  2  0
  6 15  1  0
 15 16  1  0
 16 17  1  0
 17 18  1  0
 18 19  1  0
 19 20  1  0
 20 21  1  0
 21 22  1  0
 22 23  1  0
 23 24  1  0
 24 25  1  0
 25 26  2  0
 24 27  1  0
 27 28  1  0
 28 29  1  0
 29 30  1  0
 23 31  1  0
 31 32  1  0
 32 33  1  0
 33 34  1  0
 33 35  1  0
 19 36  1  0
 36 37  1  0
 13  8  1  0
 37 16  1  0
 35 21  1  0
 35 32  1  0
  1 38  1  0
  1 39  1  0
  1 40  1  0
  2 41  1  0
  3 42  1  0
  3 43  1  0
  3 44  1  0
  4 45  1  0
  4 46  1  0
  5 47  1  0
  5 48  1  0
  6 49  1  6
  7 50  1  0
  7 51  1  0
  8 52  1  1
  9 53  1  0
 10 54  1  0
 11 55  1  0
 17 56  1  0
 17 57  1  0
 18 58  1  0
 18 59  1  0
 19 60  1  0
 20 61  1  0
 20 62  1  0
 21 63  1  1
 22 64  1  0
 22 65  1  0
 23 66  1  1
 25 67  1  0
 27 68  1  0
 27 69  1  0
 28 70  1  0
 28 71  1  0
 30 72  1  0
 31 73  1  0
 31 74  1  0
 32 75  1  1
 33 76  1  6
 34 77  1  0
 34 78  1  0
 34 79  1  0
 35 80  1  1
 36 81  1  0
 36 82  1  0
 37 83  1  0
 37 84  1  0
M  CHG  1  35   1
M  END
>  <docking_score>  (15) 
-9.736

>  <plif_similarity>  (15) 
0.222

$$$$
DiffSBDD_27
     RDKit          3D

 69 71  0  0  0  0  0  0  0  0999 V2000
   39.9130   26.0450   55.5620 C   0  0  0  0  0  0  0  0  0  0  0  0
   39.0930   27.0480   56.3140 C   0  0  0  0  0  0  0  0  0  0  0  0
   40.1200   28.1840   56.7360 C   0  0  2  0  0  0  0  0  0  0  0  0
   41.2250   27.8930   57.6490 C   0  0  0  0  0  0  0  0  0  0  0  0
   39.4680   29.4230   56.8910 C   0  0  0  0  0  0  0  0  0  0  0  0
   38.6110   29.8600   58.2770 S   0  0  0  0  0  0  0  0  0  0  0  0
   38.3540   31.3510   58.0900 C   0  0  0  0  0  0  0  0  0  0  0  0
   37.7870   32.3870   58.9430 C   0  0  0  0  0  0  0  0  0  0  0  0
   38.7130   32.7280   59.9960 N   0  0  0  0  0  0  0  0  0  0  0  0
   38.3570   33.5590   61.0210 C   0  0  0  0  0  0  0  0  0  0  0  0
   39.0120   34.8860   60.8660 N   0  0  1  0  0  0  0  0  0  0  0  0
   40.2620   35.2310   61.2470 C   0  0  0  0  0  0  0  0  0  0  0  0
   40.8750   34.7110   62.4520 N   0  0  0  0  0  0  0  0  0  0  0  0
   40.7680   35.4750   63.4990 C   0  0  1  0  0  0  0  0  0  0  0  0
   41.7140   35.2200   64.3310 C   0  0  0  0  0  0  0  0  0  0  0  0
   42.6160   34.9530   65.1050 N   0  0  0  0  0  0  0  0  0  0  0  0
   39.6710   36.4130   63.5510 C   0  0  0  0  0  0  0  0  0  0  0  0
   39.4280   36.8160   64.7260 O   0  0  0  0  0  0  0  0  0  0  0  0
   38.7490   36.8840   62.5900 N   0  0  0  0  0  0  0  0  0  0  0  0
   37.3370   37.1390   63.1120 C   0  0  0  0  0  0  0  0  0  0  0  0
   36.5290   37.8610   61.9610 C   0  0  0  0  0  0  0  0  0  0  0  0
   37.7010   38.2760   60.9800 C   0  0  0  0  0  0  0  0  0  0  0  0
   38.7460   37.2430   61.1880 C   0  0  2  0  0  0  0  0  0  0  0  0
   38.2930   36.0000   60.3690 C   0  0  0  0  0  0  0  0  0  0  0  0
   38.6810   31.5610   56.6010 C   0  0  0  0  0  0  0  0  0  0  0  0
   38.6360   33.0060   55.9340 C   0  0  0  0  0  0  0  0  0  0  0  0
   39.2500   30.4630   55.9050 C   0  0  0  0  0  0  0  0  0  0  0  0
   39.5010   30.4080   54.3920 C   0  0  0  0  0  0  0  0  0  0  0  0
   39.0260   29.3380   53.4680 C   0  0  0  0  0  0  0  0  0  0  0  0
   39.0200   28.7280   52.1630 C   0  0  0  0  0  0  0  0  0  0  0  0
   40.0210   28.8700   51.4220 O   0  0  0  0  0  0  0  0  0  0  0  0
   37.9850   28.1060   51.8430 O   0  0  0  0  0  0  0  0  0  0  0  0
   40.4432   25.3964   56.2749 H   0  0  0  0  0  0  0  0  0  0  0  0
   39.2536   25.4326   54.9295 H   0  0  0  0  0  0  0  0  0  0  0  0
   40.6443   26.5695   54.9295 H   0  0  0  0  0  0  0  0  0  0  0  0
   38.3020   27.4612   55.6708 H   0  0  0  0  0  0  0  0  0  0  0  0
   38.5897   26.6016   57.1843 H   0  0  0  0  0  0  0  0  0  0  0  0
   40.7818   28.2486   55.8597 H   0  0  0  0  0  0  0  0  0  0  0  0
   40.8760   27.9849   58.6881 H   0  0  0  0  0  0  0  0  0  0  0  0
   41.5863   26.8691   57.4728 H   0  0  0  0  0  0  0  0  0  0  0  0
   42.0438   28.6061   57.4728 H   0  0  0  0  0  0  0  0  0  0  0  0
   37.5790   33.2820   58.3382 H   0  0  0  0  0  0  0  0  0  0  0  0
   36.8554   32.0121   59.3919 H   0  0  0  0  0  0  0  0  0  0  0  0
   39.5250   33.1660   59.5370 H   0  0  0  0  0  0  0  0  0  0  0  0
   38.8420   31.8270   60.4770 H   0  0  0  0  0  0  0  0  0  0  0  0
   37.2650   33.6914   61.0173 H   0  0  0  0  0  0  0  0  0  0  0  0
   38.6808   33.1108   61.9719 H   0  0  0  0  0  0  0  0  0  0  0  0
   38.6520   35.1720   61.7870 H   0  0  0  0  0  0  0  0  0  0  0  0
   40.9253   34.9445   60.4175 H   0  0  0  0  0  0  0  0  0  0  0  0
   40.1387   36.2955   61.4953 H   0  0  0  0  0  0  0  0  0  0  0  0
   40.4330   33.8060   62.6700 H   0  0  0  0  0  0  0  0  0  0  0  0
   41.8830   34.6370   62.2520 H   0  0  0  0  0  0  0  0  0  0  0  0
   40.1354   34.7185   63.9864 H   0  0  0  0  0  0  0  0  0  0  0  0
   36.8535   36.1850   63.3690 H   0  0  0  0  0  0  0  0  0  0  0  0
   37.3651   37.7639   64.0168 H   0  0  0  0  0  0  0  0  0  0  0  0
   35.8195   37.1754   61.4748 H   0  0  0  0  0  0  0  0  0  0  0  0
   35.9066   38.7009   62.3033 H   0  0  0  0  0  0  0  0  0  0  0  0
   37.3536   38.2724   59.9363 H   0  0  0  0  0  0  0  0  0  0  0  0
   38.0726   39.2918   61.1799 H   0  0  0  0  0  0  0  0  0  0  0  0
   39.7430   37.5952   60.8846 H   0  0  0  0  0  0  0  0  0  0  0  0
   37.2124   35.8383   60.4962 H   0  0  0  0  0  0  0  0  0  0  0  0
   38.4911   36.1456   59.2968 H   0  0  0  0  0  0  0  0  0  0  0  0
   38.6121   33.7730   56.7221 H   0  0  0  0  0  0  0  0  0  0  0  0
   39.5301   33.1496   55.3095 H   0  0  0  0  0  0  0  0  0  0  0  0
   37.7347   33.0937   55.3095 H   0  0  0  0  0  0  0  0  0  0  0  0
   39.0785   31.3425   53.9943 H   0  0  0  0  0  0  0  0  0  0  0  0
   40.5809   30.1986   54.3860 H   0  0  0  0  0  0  0  0  0  0  0  0
   39.3369   28.4625   54.0570 H   0  0  0  0  0  0  0  0  0  0  0  0
   38.2239   30.0123   53.1333 H   0  0  0  0  0  0  0  0  0  0  0  0
  1  2  1  0
  2  3  1  0
  3  4  1  0
  3  5  1  0
  5  6  1  0
  6  7  1  0
  7  8  1  0
  8  9  1  0
  9 10  1  0
 10 11  1  0
 11 12  1  0
 12 13  1  0
 13 14  1  0
 14 15  1  0
 15 16  3  0
 14 17  1  0
 17 18  2  0
 17 19  1  0
 19 20  1  0
 20 21  1  0
 21 22  1  0
 22 23  1  0
 23 24  1  0
  7 25  2  0
 25 26  1  0
 25 27  1  0
 27 28  1  0
 28 29  1  0
 29 30  1  0
 30 31  2  0
 30 32  1  0
 27  5  2  0
 24 11  1  0
 23 19  1  0
  1 33  1  0
  1 34  1  0
  1 35  1  0
  2 36  1  0
  2 37  1  0
  3 38  1  6
  4 39  1  0
  4 40  1  0
  4 41  1  0
  8 42  1  0
  8 43  1  0
  9 44  1  0
  9 45  1  0
 10 46  1  0
 10 47  1  0
 11 48  1  6
 12 49  1  0
 12 50  1  0
 13 51  1  0
 13 52  1  0
 14 53  1  1
 20 54  1  0
 20 55  1  0
 21 56  1  0
 21 57  1  0
 22 58  1  0
 22 59  1  0
 23 60  1  6
 24 61  1  0
 24 62  1  0
 26 63  1  0
 26 64  1  0
 26 65  1  0
 28 66  1  0
 28 67  1  0
 29 68  1  0
 29 69  1  0
M  CHG  4   9   1  11   1  13   1  32  -1
M  END
>  <docking_score>  (16) 
-9.617

>  <plif_similarity>  (16) 
0.222

$$$$
DiffSBDD_29
     RDKit          3D

 78 81  0  0  0  0  0  0  0  0999 V2000
   38.4460   24.8120   57.1810 C   0  0  0  0  0  0  0  0  0  0  0  0
   37.3170   25.3630   56.3050 C   0  0  0  0  0  0  0  0  0  0  0  0
   37.7530   25.9730   55.0410 C   0  0  0  0  0  0  0  0  0  0  0  0
   38.1240   27.4250   55.4560 C   0  0  2  0  0  0  0  0  0  0  0  0
   38.7070   28.2990   56.0260 C   0  0  1  0  0  0  0  0  0  0  0  0
   39.7530   28.9360   56.8610 C   0  0  0  0  0  0  0  0  0  0  0  0
   39.6490   28.6160   58.4540 N   0  0  0  0  0  0  0  0  0  0  0  0
   38.2980   28.7790   59.0520 C   0  0  0  0  0  0  0  0  0  0  0  0
   37.6050   29.9980   59.6530 C   0  0  2  0  0  0  0  0  0  0  0  0
   36.1300   30.0830   59.2660 C   0  0  0  0  0  0  0  0  0  0  0  0
   38.1350   31.3070   58.9470 C   0  0  0  0  0  0  0  0  0  0  0  0
   38.0380   32.5090   59.7340 N   0  0  0  0  0  0  0  0  0  0  0  0
   36.9390   33.5460   60.0120 C   0  0  0  0  0  0  0  0  0  0  0  0
   37.5560   34.3940   60.7600 C   0  0  0  0  0  0  0  0  0  0  0  0
   37.6030   35.7460   61.1520 C   0  0  0  0  0  0  0  0  0  0  0  0
   38.7930   36.5370   61.5100 C   0  0  0  0  0  0  0  0  0  0  0  0
   40.2540   36.5880   62.0010 C   0  0  0  0  0  0  0  0  0  0  0  0
   40.7320   37.6470   62.4540 O   0  0  0  0  0  0  0  0  0  0  0  0
   41.0720   35.4630   61.6050 C   0  0  0  0  0  0  0  0  0  0  0  0
   40.1950   34.4790   61.2340 C   0  0  0  0  0  0  0  0  0  0  0  0
   39.1330   34.0160   60.7850 C   0  0  2  0  0  0  0  0  0  0  0  0
   39.0890   32.8470   60.1940 O   0  0  0  0  0  0  0  0  0  0  0  0
   40.8580   28.4000   59.1390 C   0  0  0  0  0  0  0  0  0  0  0  0
   41.8700   27.8010   58.5310 N   0  0  0  0  0  0  0  0  0  0  0  0
   40.9260   28.9050   60.3980 O   0  0  0  0  0  0  0  0  0  0  0  0
   37.3920   29.6530   55.8110 C   0  0  0  0  0  0  0  0  0  0  0  0
   37.0470   29.3460   54.4140 C   0  0  0  0  0  0  0  0  0  0  0  0
   37.3150   27.9590   54.2080 N   0  0  1  0  0  0  0  0  0  0  0  0
   38.0480   27.5600   52.9900 C   0  0  0  0  0  0  0  0  0  0  0  0
   39.0790   28.4110   52.0700 C   0  0  0  0  0  0  0  0  0  0  0  0
   39.4860   29.7780   52.5630 C   0  0  0  0  0  0  0  0  0  0  0  0
   40.2450   30.5990   51.6340 C   0  0  0  0  0  0  0  0  0  0  0  0
   40.5490   30.0980   50.3660 C   0  0  0  0  0  0  0  0  0  0  0  0
   40.0670   28.8680   49.8810 C   0  0  0  0  0  0  0  0  0  0  0  0
   39.3030   28.0240   50.8860 C   0  0  0  0  0  0  0  0  0  0  0  0
   38.1832   24.9403   58.2414 H   0  0  0  0  0  0  0  0  0  0  0  0
   38.5889   23.7429   56.9654 H   0  0  0  0  0  0  0  0  0  0  0  0
   39.3768   25.3571   56.9654 H   0  0  0  0  0  0  0  0  0  0  0  0
   36.6347   24.5339   56.0663 H   0  0  0  0  0  0  0  0  0  0  0  0
   36.8412   26.1666   56.8862 H   0  0  0  0  0  0  0  0  0  0  0  0
   38.6258   25.4454   54.6289 H   0  0  0  0  0  0  0  0  0  0  0  0
   36.9846   25.9322   54.2549 H   0  0  0  0  0  0  0  0  0  0  0  0
   38.8547   27.4729   54.6352 H   0  0  0  0  0  0  0  0  0  0  0  0
   38.0997   28.1178   56.9251 H   0  0  0  0  0  0  0  0  0  0  0  0
   40.7335   28.5863   56.5057 H   0  0  0  0  0  0  0  0  0  0  0  0
   39.6129   30.0219   56.7551 H   0  0  0  0  0  0  0  0  0  0  0  0
   37.6161   28.4582   58.2507 H   0  0  0  0  0  0  0  0  0  0  0  0
   38.5110   28.2664   60.0017 H   0  0  0  0  0  0  0  0  0  0  0  0
   37.7790   29.9132   60.7358 H   0  0  0  0  0  0  0  0  0  0  0  0
   35.5135   30.1185   60.1763 H   0  0  0  0  0  0  0  0  0  0  0  0
   35.9587   30.9925   58.6715 H   0  0  0  0  0  0  0  0  0  0  0  0
   35.8554   29.1992   58.6715 H   0  0  0  0  0  0  0  0  0  0  0  0
   39.1937   31.1515   58.6919 H   0  0  0  0  0  0  0  0  0  0  0  0
   37.4906   31.4633   58.0694 H   0  0  0  0  0  0  0  0  0  0  0  0
   35.8960   33.5605   59.6629 H   0  0  0  0  0  0  0  0  0  0  0  0
   37.1411   36.2958   60.3187 H   0  0  0  0  0  0  0  0  0  0  0  0
   37.1557   35.6490   62.1523 H   0  0  0  0  0  0  0  0  0  0  0  0
   38.9124   37.0953   60.5697 H   0  0  0  0  0  0  0  0  0  0  0  0
   38.4593   36.5321   62.5582 H   0  0  0  0  0  0  0  0  0  0  0  0
   41.7194   35.7384   60.7594 H   0  0  0  0  0  0  0  0  0  0  0  0
   41.7306   35.1327   62.4218 H   0  0  0  0  0  0  0  0  0  0  0  0
   40.8711   33.9522   60.5445 H   0  0  0  0  0  0  0  0  0  0  0  0
   39.6658   34.6547   62.1822 H   0  0  0  0  0  0  0  0  0  0  0  0
   38.9337   33.5339   61.7534 H   0  0  0  0  0  0  0  0  0  0  0  0
   42.7540   27.6440   59.0360 H   0  0  0  0  0  0  0  0  0  0  0  0
   41.7740   27.4910   57.5530 H   0  0  0  0  0  0  0  0  0  0  0  0
   36.5391   29.5237   56.4935 H   0  0  0  0  0  0  0  0  0  0  0  0
   37.7074   30.6848   56.0254 H   0  0  0  0  0  0  0  0  0  0  0  0
   35.9821   29.5549   54.2342 H   0  0  0  0  0  0  0  0  0  0  0  0
   37.6364   29.9647   53.7212 H   0  0  0  0  0  0  0  0  0  0  0  0
   36.3800   27.5450   54.0830 H   0  0  0  0  0  0  0  0  0  0  0  0
   38.6296   26.6801   53.3022 H   0  0  0  0  0  0  0  0  0  0  0  0
   37.1940   27.5668   52.2968 H   0  0  0  0  0  0  0  0  0  0  0  0
   39.2228   30.1337   53.5701 H   0  0  0  0  0  0  0  0  0  0  0  0
   40.5770   31.6059   51.9270 H   0  0  0  0  0  0  0  0  0  0  0  0
   41.1998   30.6967   49.7118 H   0  0  0  0  0  0  0  0  0  0  0  0
   40.2325   28.5401   48.8441 H   0  0  0  0  0  0  0  0  0  0  0  0
   38.9297   27.0378   50.5727 H   0  0  0  0  0  0  0  0  0  0  0  0
  1  2  1  0
  2  3  1  0
  3  4  1  0
  4  5  1  0
  5  6  1  0
  6  7  1  0
  7  8  1  0
  8  9  1  0
  9 10  1  0
  9 11  1  0
 11 12  1  0
 12 13  1  0
 13 14  2  0
 14 15  1  0
 15 16  1  0
 16 17  1  0
 17 18  2  0
 17 19  1  0
 19 20  1  0
 20 21  1  0
 21 22  1  0
  7 23  1  0
 23 24  1  0
 23 25  2  0
  5 26  1  0
 26 27  1  0
 27 28  1  0
 28 29  1  0
 29 30  1  0
 30 31  2  0
 31 32  1  0
 32 33  2  0
 33 34  1  0
 34 35  2  0
 28  4  1  0
 35 30  1  0
 22 12  1  0
 21 14  1  0
  1 36  1  0
  1 37  1  0
  1 38  1  0
  2 39  1  0
  2 40  1  0
  3 41  1  0
  3 42  1  0
  4 43  1  1
  5 44  1  6
  6 45  1  0
  6 46  1  0
  8 47  1  0
  8 48  1  0
  9 49  1  1
 10 50  1  0
 10 51  1  0
 10 52  1  0
 11 53  1  0
 11 54  1  0
 13 55  1  0
 15 56  1  0
 15 57  1  0
 16 58  1  0
 16 59  1  0
 19 60  1  0
 19 61  1  0
 20 62  1  0
 20 63  1  0
 21 64  1  6
 24 65  1  0
 24 66  1  0
 26 67  1  0
 26 68  1  0
 27 69  1  0
 27 70  1  0
 28 71  1  6
 29 72  1  0
 29 73  1  0
 31 74  1  0
 32 75  1  0
 33 76  1  0
 34 77  1  0
 35 78  1  0
M  CHG  1  28   1
M  END
>  <docking_score>  (17) 
-10.887

>  <plif_similarity>  (17) 
0.444

$$$$
DiffSBDD_2
     RDKit          3D

 86 89  0  0  0  0  0  0  0  0999 V2000
   38.0540   26.2760   57.2880 C   0  0  0  0  0  0  0  0  0  0  0  0
   39.4670   26.3330   57.7400 C   0  0  0  0  0  0  0  0  0  0  0  0
   40.3440   27.5900   57.2740 C   0  0  2  0  0  0  0  0  0  0  0  0
   41.6690   27.7970   58.1320 C   0  0  0  0  0  0  0  0  0  0  0  0
   39.4260   28.7820   57.2880 C   0  0  1  0  0  0  0  0  0  0  0  0
   39.3220   29.6080   58.6210 C   0  0  0  0  0  0  0  0  0  0  0  0
   38.1290   30.4320   57.9870 C   0  0  1  0  0  0  0  0  0  0  0  0
   37.7410   31.3180   59.0250 N   0  0  2  0  0  0  0  0  0  0  0  0
   37.9860   32.3010   58.5180 C   0  0  0  0  0  0  0  0  0  0  0  0
   38.2080   33.6940   58.1110 C   0  0  0  0  0  0  0  0  0  0  0  0
   37.2200   31.1140   60.3680 C   0  0  2  0  0  0  0  0  0  0  0  0
   35.7230   31.2780   60.4390 C   0  0  0  0  0  0  0  0  0  0  0  0
   37.8950   31.6880   61.5940 C   0  0  0  0  0  0  0  0  0  0  0  0
   39.3050   31.2050   61.8040 C   0  0  0  0  0  0  0  0  0  0  0  0
   40.1080   32.3530   61.6040 C   0  0  0  0  0  0  0  0  0  0  0  0
   39.8440   33.5270   62.4770 C   0  0  1  0  0  0  0  0  0  0  0  0
   41.0570   33.3640   63.4150 C   0  0  0  0  0  0  0  0  0  0  0  0
   41.3110   34.8850   64.1880 S   0  0  0  0  0  0  0  0  0  0  0  0
   40.4380   35.7230   63.0370 C   0  0  1  0  0  0  0  0  0  0  0  0
   39.8200   37.0270   62.6340 C   0  0  0  0  0  0  0  0  0  0  0  0
   38.8410   36.8340   61.5760 C   0  0  0  0  0  0  0  0  0  0  0  0
   38.6650   35.4750   61.5070 C   0  0  0  0  0  0  0  0  0  0  0  0
   39.9130   34.8970   61.8460 C   0  0  2  0  0  0  0  0  0  0  0  0
   41.0990   35.0500   60.8720 C   0  0  0  0  0  0  0  0  0  0  0  0
   38.7660   30.9040   56.7190 C   0  0  0  0  0  0  0  0  0  0  0  0
   39.1780   29.5780   56.1440 N   0  0  2  0  0  0  0  0  0  0  0  0
   39.2600   29.4950   54.7870 C   0  0  0  0  0  0  0  0  0  0  0  0
   39.0660   28.2960   54.1890 C   0  0  0  0  0  0  0  0  0  0  0  0
   38.8780   27.3620   53.3460 C   0  0  0  0  0  0  0  0  0  0  0  0
   39.0140   27.2730   51.9120 C   0  0  0  0  0  0  0  0  0  0  0  0
   39.6220   28.4020   51.2330 C   0  0  0  0  0  0  0  0  0  0  0  0
   39.9940   28.1160   50.1250 F   0  0  0  0  0  0  0  0  0  0  0  0
   39.7580   29.5790   51.8730 C   0  0  0  0  0  0  0  0  0  0  0  0
   39.8100   30.5350   52.6880 C   0  0  0  0  0  0  0  0  0  0  0  0
   39.6810   30.7240   54.0300 C   0  0  0  0  0  0  0  0  0  0  0  0
   37.3895   26.2492   58.1642 H   0  0  0  0  0  0  0  0  0  0  0  0
   37.8266   27.1657   56.6824 H   0  0  0  0  0  0  0  0  0  0  0  0
   37.8990   25.3709   56.6824 H   0  0  0  0  0  0  0  0  0  0  0  0
   39.4613   26.3252   58.8400 H   0  0  0  0  0  0  0  0  0  0  0  0
   39.9477   25.4651   57.2649 H   0  0  0  0  0  0  0  0  0  0  0  0
   40.7371   27.4237   56.2602 H   0  0  0  0  0  0  0  0  0  0  0  0
   41.4219   27.7584   59.2032 H   0  0  0  0  0  0  0  0  0  0  0  0
   42.3889   27.0004   57.8928 H   0  0  0  0  0  0  0  0  0  0  0  0
   42.1116   28.7752   57.8928 H   0  0  0  0  0  0  0  0  0  0  0  0
   38.5696   28.0954   57.2167 H   0  0  0  0  0  0  0  0  0  0  0  0
   39.0425   29.0120   59.5023 H   0  0  0  0  0  0  0  0  0  0  0  0
   40.2019   30.1188   59.0392 H   0  0  0  0  0  0  0  0  0  0  0  0
   37.1688   29.9877   57.6858 H   0  0  0  0  0  0  0  0  0  0  0  0
   36.7800   31.3320   58.6540 H   0  0  0  0  0  0  0  0  0  0  0  0
   39.0258   32.0079   58.3106 H   0  0  0  0  0  0  0  0  0  0  0  0
   36.9098   32.5276   58.5402 H   0  0  0  0  0  0  0  0  0  0  0  0
   38.3087   34.3258   59.0058 H   0  0  0  0  0  0  0  0  0  0  0  0
   39.1278   33.7586   57.5111 H   0  0  0  0  0  0  0  0  0  0  0  0
   37.3539   34.0413   57.5111 H   0  0  0  0  0  0  0  0  0  0  0  0
   37.5346   30.0656   60.4773 H   0  0  0  0  0  0  0  0  0  0  0  0
   35.4075   31.3126   61.4922 H   0  0  0  0  0  0  0  0  0  0  0  0
   35.4324   32.2133   59.9383 H   0  0  0  0  0  0  0  0  0  0  0  0
   35.2368   30.4277   59.9383 H   0  0  0  0  0  0  0  0  0  0  0  0
   37.9165   32.7833   61.4952 H   0  0  0  0  0  0  0  0  0  0  0  0
   37.3120   31.3504   62.4635 H   0  0  0  0  0  0  0  0  0  0  0  0
   39.4338   30.8137   62.8239 H   0  0  0  0  0  0  0  0  0  0  0  0
   39.5715   30.3848   61.1211 H   0  0  0  0  0  0  0  0  0  0  0  0
   41.1556   32.0550   61.7579 H   0  0  0  0  0  0  0  0  0  0  0  0
   39.8652   32.6953   60.5872 H   0  0  0  0  0  0  0  0  0  0  0  0
   38.8203   33.5149   62.8793 H   0  0  0  0  0  0  0  0  0  0  0  0
   40.8503   32.5886   64.1673 H   0  0  0  0  0  0  0  0  0  0  0  0
   41.9500   33.0590   62.8497 H   0  0  0  0  0  0  0  0  0  0  0  0
   39.5016   35.4336   63.5365 H   0  0  0  0  0  0  0  0  0  0  0  0
   39.3228   37.4747   63.5071 H   0  0  0  0  0  0  0  0  0  0  0  0
   40.6137   37.6908   62.2607 H   0  0  0  0  0  0  0  0  0  0  0  0
   37.8946   37.3353   61.8272 H   0  0  0  0  0  0  0  0  0  0  0  0
   39.1747   37.2593   60.6180 H   0  0  0  0  0  0  0  0  0  0  0  0
   37.8903   35.1542   62.2190 H   0  0  0  0  0  0  0  0  0  0  0  0
   38.3384   35.1636   60.5038 H   0  0  0  0  0  0  0  0  0  0  0  0
   42.0305   35.1702   61.4446 H   0  0  0  0  0  0  0  0  0  0  0  0
   41.1711   34.1537   60.2384 H   0  0  0  0  0  0  0  0  0  0  0  0
   40.9413   35.9352   60.2384 H   0  0  0  0  0  0  0  0  0  0  0  0
   38.0496   31.4287   56.0698 H   0  0  0  0  0  0  0  0  0  0  0  0
   39.5791   31.6340   56.8455 H   0  0  0  0  0  0  0  0  0  0  0  0
   40.1650   29.8670   56.1860 H   0  0  0  0  0  0  0  0  0  0  0  0
   38.5400   26.4228   53.8082 H   0  0  0  0  0  0  0  0  0  0  0  0
   39.6257   26.3857   51.6919 H   0  0  0  0  0  0  0  0  0  0  0  0
   37.9829   27.2342   51.5309 H   0  0  0  0  0  0  0  0  0  0  0  0
   40.0179   31.4842   52.1724 H   0  0  0  0  0  0  0  0  0  0  0  0
   40.6512   31.0580   54.4263 H   0  0  0  0  0  0  0  0  0  0  0  0
   38.8846   31.4699   54.1694 H   0  0  0  0  0  0  0  0  0  0  0  0
  1  2  1  0
  2  3  1  0
  3  4  1  0
  3  5  1  0
  5  6  1  0
  6  7  1  0
  7  8  1  0
  8  9  1  0
  9 10  1  0
  8 11  1  0
 11 12  1  0
 11 13  1  0
 13 14  1  0
 14 15  1  0
 15 16  1  0
 16 17  1  0
 17 18  1  0
 18 19  1  0
 19 20  1  0
 20 21  1  0
 21 22  1  0
 22 23  1  0
 23 24  1  6
  7 25  1  0
 25 26  1  0
 26 27  1  0
 27 28  2  0
 28 29  2  0
 29 30  1  0
 30 31  1  0
 31 32  1  0
 31 33  2  0
 33 34  2  0
 34 35  1  0
 26  5  1  0
 35 27  1  0
 23 16  1  0
 23 19  1  0
  1 36  1  0
  1 37  1  0
  1 38  1  0
  2 39  1  0
  2 40  1  0
  3 41  1  6
  4 42  1  0
  4 43  1  0
  4 44  1  0
  5 45  1  1
  6 46  1  0
  6 47  1  0
  7 48  1  6
  8 49  1  6
  9 50  1  0
  9 51  1  0
 10 52  1  0
 10 53  1  0
 10 54  1  0
 11 55  1  1
 12 56  1  0
 12 57  1  0
 12 58  1  0
 13 59  1  0
 13 60  1  0
 14 61  1  0
 14 62  1  0
 15 63  1  0
 15 64  1  0
 16 65  1  1
 17 66  1  0
 17 67  1  0
 19 68  1  6
 20 69  1  0
 20 70  1  0
 21 71  1  0
 21 72  1  0
 22 73  1  0
 22 74  1  0
 24 75  1  0
 24 76  1  0
 24 77  1  0
 25 78  1  0
 25 79  1  0
 26 80  1  6
 29 81  1  0
 30 82  1  0
 30 83  1  0
 34 84  1  0
 35 85  1  0
 35 86  1  0
M  CHG  2   8   1  26   1
M  END
>  <docking_score>  (18) 
-10.695

>  <plif_similarity>  (18) 
0.444

$$$$
DiffSBDD_30
     RDKit          3D

 75 78  0  0  0  0  0  0  0  0999 V2000
   40.6720   30.2370   62.6780 C   0  0  0  0  0  0  0  0  0  0  0  0
   41.0170   29.8170   61.3940 O   0  0  0  0  0  0  0  0  0  0  0  0
   40.2930   28.6550   61.1280 C   0  0  0  0  0  0  0  0  0  0  0  0
   39.6840   28.5700   59.8760 C   0  0  2  0  0  0  0  0  0  0  0  0
   39.7820   27.3140   58.9460 C   0  0  0  0  0  0  0  0  0  0  0  0
   40.9030   27.4450   57.9480 C   0  0  0  0  0  0  0  0  0  0  0  0
   41.8530   28.1790   58.2140 O   0  0  0  0  0  0  0  0  0  0  0  0
   40.8390   26.7100   56.9650 O   0  0  0  0  0  0  0  0  0  0  0  0
   39.2770   29.7530   59.4400 N   0  0  0  0  0  0  0  0  0  0  0  0
   38.1480   30.4230   58.9050 C   0  0  2  0  0  0  0  0  0  0  0  0
   37.4860   30.2390   60.0440 O   0  0  0  0  0  0  0  0  0  0  0  0
   37.2930   29.5370   57.8150 C   0  0  0  0  0  0  0  0  0  0  0  0
   37.5190   29.8970   56.3170 C   0  0  2  0  0  0  0  0  0  0  0  0
   38.6370   29.1740   55.5690 C   0  0  2  0  0  0  0  0  0  0  0  0
   39.8270   30.0970   55.4430 C   0  0  0  0  0  0  0  0  0  0  0  0
   39.6780   29.8630   53.9220 C   0  0  2  0  0  0  0  0  0  0  0  0
   39.7810   29.6140   52.4230 C   0  0  0  0  0  0  0  0  0  0  0  0
   40.0920   30.6110   51.5960 C   0  0  0  0  0  0  0  0  0  0  0  0
   40.2920   30.4040   50.2100 C   0  0  0  0  0  0  0  0  0  0  0  0
   40.1970   29.1720   49.6610 C   0  0  0  0  0  0  0  0  0  0  0  0
   39.6410   28.3370   50.5360 C   0  0  0  0  0  0  0  0  0  0  0  0
   39.4920   28.3480   51.9730 C   0  0  0  0  0  0  0  0  0  0  0  0
   38.3470   29.3200   54.1620 O   0  0  0  0  0  0  0  0  0  0  0  0
   37.6860   31.1700   56.1500 O   0  0  0  0  0  0  0  0  0  0  0  0
   38.3560   32.0460   57.0510 C   0  0  0  0  0  0  0  0  0  0  0  0
   38.2140   31.8430   58.5750 C   0  0  1  0  0  0  0  0  0  0  0  0
   38.3070   33.0340   59.2550 N   0  0  2  0  0  0  0  0  0  0  0  0
   39.2820   33.2070   60.4540 C   0  0  0  0  0  0  0  0  0  0  0  0
   38.8400   34.4950   61.1890 C   0  0  0  0  0  0  0  0  0  0  0  0
   38.2170   35.1930   60.1110 C   0  0  2  0  0  0  0  0  0  0  0  0
   37.8540   36.5770   60.5290 C   0  0  0  0  0  0  0  0  0  0  0  0
   37.3920   37.4470   59.7130 O   0  0  0  0  0  0  0  0  0  0  0  0
   38.1160   36.9750   61.8900 C   0  0  2  0  0  0  0  0  0  0  0  0
   37.0320   37.1540   63.0440 C   0  0  0  0  0  0  0  0  0  0  0  0
   39.3680   37.7820   62.1390 C   0  0  0  0  0  0  0  0  0  0  0  0
   39.5890   38.8970   61.6950 O   0  0  0  0  0  0  0  0  0  0  0  0
   40.2100   37.2230   62.9400 O   0  0  0  0  0  0  0  0  0  0  0  0
   37.6500   34.2420   59.1500 C   0  0  0  0  0  0  0  0  0  0  0  0
   41.1875   29.6095   63.4199 H   0  0  0  0  0  0  0  0  0  0  0  0
   40.9722   31.2865   62.8135 H   0  0  0  0  0  0  0  0  0  0  0  0
   39.5842   30.1464   62.8135 H   0  0  0  0  0  0  0  0  0  0  0  0
   40.9830   27.8034   61.2217 H   0  0  0  0  0  0  0  0  0  0  0  0
   39.4655   28.6573   61.8528 H   0  0  0  0  0  0  0  0  0  0  0  0
   38.8257   27.8915   59.9896 H   0  0  0  0  0  0  0  0  0  0  0  0
   39.9600   26.4237   59.5671 H   0  0  0  0  0  0  0  0  0  0  0  0
   38.8370   27.2247   58.3901 H   0  0  0  0  0  0  0  0  0  0  0  0
   39.4790   30.3400   60.2610 H   0  0  0  0  0  0  0  0  0  0  0  0
   37.0800   31.0940   60.3320 H   0  0  0  0  0  0  0  0  0  0  0  0
   37.5655   28.4802   57.9522 H   0  0  0  0  0  0  0  0  0  0  0  0
   36.2346   29.7582   58.0173 H   0  0  0  0  0  0  0  0  0  0  0  0
   36.5830   29.5328   55.8683 H   0  0  0  0  0  0  0  0  0  0  0  0
   38.7580   28.1880   56.0415 H   0  0  0  0  0  0  0  0  0  0  0  0
   39.6548   31.1310   55.7766 H   0  0  0  0  0  0  0  0  0  0  0  0
   40.7707   29.9357   55.9847 H   0  0  0  0  0  0  0  0  0  0  0  0
   39.5983   28.7799   54.0964 H   0  0  0  0  0  0  0  0  0  0  0  0
   40.1967   31.6275   52.0031 H   0  0  0  0  0  0  0  0  0  0  0  0
   40.5297   31.2635   49.5660 H   0  0  0  0  0  0  0  0  0  0  0  0
   40.5281   28.9014   48.6475 H   0  0  0  0  0  0  0  0  0  0  0  0
   39.2001   27.4470   50.0632 H   0  0  0  0  0  0  0  0  0  0  0  0
   39.1983   27.4919   52.5982 H   0  0  0  0  0  0  0  0  0  0  0  0
   39.4294   31.9783   56.8204 H   0  0  0  0  0  0  0  0  0  0  0  0
   37.8613   33.0131   56.8778 H   0  0  0  0  0  0  0  0  0  0  0  0
   39.3027   31.7102   58.6587 H   0  0  0  0  0  0  0  0  0  0  0  0
   39.0370   33.3740   58.6120 H   0  0  0  0  0  0  0  0  0  0  0  0
   39.2140   32.3408   61.1286 H   0  0  0  0  0  0  0  0  0  0  0  0
   40.3258   33.2781   60.1142 H   0  0  0  0  0  0  0  0  0  0  0  0
   38.1294   34.2788   62.0004 H   0  0  0  0  0  0  0  0  0  0  0  0
   39.6506   35.0443   61.6901 H   0  0  0  0  0  0  0  0  0  0  0  0
   38.6656   35.6772   59.2311 H   0  0  0  0  0  0  0  0  0  0  0  0
   38.2125   35.8910   62.0499 H   0  0  0  0  0  0  0  0  0  0  0  0
   37.5236   37.0728   64.0247 H   0  0  0  0  0  0  0  0  0  0  0  0
   36.5583   38.1425   62.9520 H   0  0  0  0  0  0  0  0  0  0  0  0
   36.2657   36.3702   62.9520 H   0  0  0  0  0  0  0  0  0  0  0  0
   36.5809   34.0976   59.3647 H   0  0  0  0  0  0  0  0  0  0  0  0
   37.7697   34.6366   58.1302 H   0  0  0  0  0  0  0  0  0  0  0  0
  1  2  1  0
  2  3  1  0
  3  4  1  0
  4  5  1  0
  5  6  1  0
  6  7  2  0
  6  8  1  0
  4  9  1  0
  9 10  1  0
 10 11  1  1
 10 12  1  0
 12 13  1  0
 13 14  1  0
 14 15  1  0
 15 16  1  0
 16 17  1  0
 17 18  2  0
 18 19  1  0
 19 20  2  0
 20 21  1  0
 21 22  2  0
 16 23  1  0
 13 24  1  0
 24 25  1  0
 25 26  1  0
 26 27  1  0
 27 28  1  0
 28 29  1  0
 29 30  1  0
 30 31  1  0
 31 32  2  0
 31 33  1  0
 33 34  1  0
 33 35  1  0
 35 36  2  0
 35 37  1  0
 30 38  1  0
 26 10  1  0
 38 27  1  0
 23 14  1  0
 22 17  1  0
  1 39  1  0
  1 40  1  0
  1 41  1  0
  3 42  1  0
  3 43  1  0
  4 44  1  1
  5 45  1  0
  5 46  1  0
  9 47  1  0
 11 48  1  0
 12 49  1  0
 12 50  1  0
 13 51  1  6
 14 52  1  1
 15 53  1  0
 15 54  1  0
 16 55  1  6
 18 56  1  0
 19 57  1  0
 20 58  1  0
 21 59  1  0
 22 60  1  0
 25 61  1  0
 25 62  1  0
 26 63  1  6
 27 64  1  6
 28 65  1  0
 28 66  1  0
 29 67  1  0
 29 68  1  0
 30 69  1  6
 33 70  1  1
 34 71  1  0
 34 72  1  0
 34 73  1  0
 38 74  1  0
 38 75  1  0
M  CHG  3   8  -1  27   1  37  -1
M  END
>  <docking_score>  (19) 
-10.29

>  <plif_similarity>  (19) 
0.667

$$$$
DiffSBDD_31
     RDKit          3D

 51 52  0  0  0  0  0  0  0  0999 V2000
   40.5560   30.2080   49.8120 C   0  0  0  0  0  0  0  0  0  0  0  0
   40.2430   30.4840   51.3320 C   0  0  0  0  0  0  0  0  0  0  0  0
   39.5150   29.3200   51.9850 C   0  0  1  0  0  0  0  0  0  0  0  0
   39.2050   27.9880   51.1770 C   0  0  0  0  0  0  0  0  0  0  0  0
   39.0590   29.4350   53.2490 C   0  0  0  0  0  0  0  0  0  0  0  0
   39.5030   30.7120   53.9380 C   0  0  0  0  0  0  0  0  0  0  0  0
   38.2960   31.2600   54.8190 C   0  0  0  0  0  0  0  0  0  0  0  0
   38.6990   31.4900   56.3300 C   0  0  0  0  0  0  0  0  0  0  0  0
   38.5610   30.2260   57.2840 C   0  0  0  0  0  0  0  0  0  0  0  0
   39.8350   29.2670   57.1790 N   0  0  0  0  0  0  0  0  0  0  0  0
   39.8640   28.0820   57.9800 C   0  0  1  0  0  0  0  0  0  0  0  0
   38.8310   27.0090   58.5290 C   0  0  0  0  0  0  0  0  0  0  0  0
   39.2890   25.6530   57.9590 C   0  0  0  0  0  0  0  0  0  0  0  0
   39.2750   25.8030   56.5080 N   0  0  1  0  0  0  0  0  0  0  0  0
   38.6180   25.0030   55.5460 C   0  0  0  0  0  0  0  0  0  0  0  0
   37.2700   24.5850   56.2240 C   0  0  0  0  0  0  0  0  0  0  0  0
   36.7790   23.5630   55.5290 O   0  0  0  0  0  0  0  0  0  0  0  0
   40.0570   26.8610   55.7920 C   0  0  0  0  0  0  0  0  0  0  0  0
   39.4980   28.1120   56.4860 N   0  0  0  0  0  0  0  0  0  0  0  0
   41.3789   29.4824   49.7330 H   0  0  0  0  0  0  0  0  0  0  0  0
   39.6597   29.8009   49.3211 H   0  0  0  0  0  0  0  0  0  0  0  0
   40.8478   31.1482   49.3211 H   0  0  0  0  0  0  0  0  0  0  0  0
   41.1905   30.6537   51.8644 H   0  0  0  0  0  0  0  0  0  0  0  0
   39.5902   31.3675   51.3891 H   0  0  0  0  0  0  0  0  0  0  0  0
   38.5517   29.7407   51.6610 H   0  0  0  0  0  0  0  0  0  0  0  0
   39.0139   27.1667   51.8834 H   0  0  0  0  0  0  0  0  0  0  0  0
   38.3185   28.1410   50.5440 H   0  0  0  0  0  0  0  0  0  0  0  0
   40.0680   27.7338   50.5440 H   0  0  0  0  0  0  0  0  0  0  0  0
   37.9594   29.4160   53.2257 H   0  0  0  0  0  0  0  0  0  0  0  0
   39.4783   28.5950   53.8223 H   0  0  0  0  0  0  0  0  0  0  0  0
   40.3683   30.5028   54.5842 H   0  0  0  0  0  0  0  0  0  0  0  0
   39.7917   31.4628   53.1877 H   0  0  0  0  0  0  0  0  0  0  0  0
   37.9573   32.2171   54.3955 H   0  0  0  0  0  0  0  0  0  0  0  0
   37.4993   30.5018   54.7993 H   0  0  0  0  0  0  0  0  0  0  0  0
   39.7490   31.8169   56.3530 H   0  0  0  0  0  0  0  0  0  0  0  0
   37.9891   32.2354   56.7179 H   0  0  0  0  0  0  0  0  0  0  0  0
   38.4598   30.5725   58.3231 H   0  0  0  0  0  0  0  0  0  0  0  0
   37.6742   29.6549   56.9719 H   0  0  0  0  0  0  0  0  0  0  0  0
   40.5290   27.9563   58.8471 H   0  0  0  0  0  0  0  0  0  0  0  0
   38.8493   26.9878   59.6286 H   0  0  0  0  0  0  0  0  0  0  0  0
   37.8009   27.2477   58.2259 H   0  0  0  0  0  0  0  0  0  0  0  0
   40.3041   25.4142   58.3090 H   0  0  0  0  0  0  0  0  0  0  0  0
   38.6309   24.8347   58.2864 H   0  0  0  0  0  0  0  0  0  0  0  0
   40.1090   25.2030   56.4380 H   0  0  0  0  0  0  0  0  0  0  0  0
   38.4276   25.5789   54.6283 H   0  0  0  0  0  0  0  0  0  0  0  0
   39.2207   24.1317   55.2500 H   0  0  0  0  0  0  0  0  0  0  0  0
   37.4509   24.2800   57.2653 H   0  0  0  0  0  0  0  0  0  0  0  0
   36.5612   25.4262   56.2337 H   0  0  0  0  0  0  0  0  0  0  0  0
   36.1230   23.0710   56.0840 H   0  0  0  0  0  0  0  0  0  0  0  0
   41.1392   26.7513   55.9556 H   0  0  0  0  0  0  0  0  0  0  0  0
   39.9577   26.8525   54.6965 H   0  0  0  0  0  0  0  0  0  0  0  0
  1  2  1  0
  2  3  1  0
  3  4  1  0
  3  5  1  0
  5  6  1  0
  6  7  1  0
  7  8  1  0
  8  9  1  0
  9 10  1  0
 10 11  1  0
 11 12  1  0
 12 13  1  0
 13 14  1  0
 14 15  1  0
 15 16  1  0
 16 17  1  0
 14 18  1  0
 18 19  1  0
 19 10  1  0
 19 11  1  0
  1 20  1  0
  1 21  1  0
  1 22  1  0
  2 23  1  0
  2 24  1  0
  3 25  1  1
  4 26  1  0
  4 27  1  0
  4 28  1  0
  5 29  1  0
  5 30  1  0
  6 31  1  0
  6 32  1  0
  7 33  1  0
  7 34  1  0
  8 35  1  0
  8 36  1  0
  9 37  1  0
  9 38  1  0
 11 39  1  6
 12 40  1  0
 12 41  1  0
 13 42  1  0
 13 43  1  0
 14 44  1  1
 15 45  1  0
 15 46  1  0
 16 47  1  0
 16 48  1  0
 17 49  1  0
 18 50  1  0
 18 51  1  0
M  CHG  1  14   1
M  END
>  <docking_score>  (20) 
-6.777

>  <plif_similarity>  (20) 
0.333

$$$$
DiffSBDD_33
     RDKit          3D

 49 51  0  0  0  0  0  0  0  0999 V2000
   39.1420   37.4850   61.9960 C   0  0  0  0  0  0  0  0  0  0  0  0
   38.6880   36.2490   61.5230 C   0  0  0  0  0  0  0  0  0  0  0  0
   39.7200   35.1430   61.1920 C   0  0  0  0  0  0  0  0  0  0  0  0
   39.2660   34.0950   60.1250 C   0  0  0  0  0  0  0  0  0  0  0  0
   37.9110   34.1630   59.4760 C   0  0  0  0  0  0  0  0  0  0  0  0
   37.5390   32.9920   58.7930 N   0  0  0  0  0  0  0  0  0  0  0  0
   38.2140   31.6320   58.8950 C   0  0  0  0  0  0  0  0  0  0  0  0
   38.5830   31.2770   57.5310 C   0  0  0  0  0  0  0  0  0  0  0  0
   38.3380   29.8140   56.8930 C   0  0  2  0  0  0  0  0  0  0  0  0
   38.3830   28.7370   58.0170 C   0  0  0  0  0  0  0  0  0  0  0  0
   39.3390   29.5070   55.7430 C   0  0  1  0  0  0  0  0  0  0  0  0
   39.1030   28.0120   55.3190 C   0  0  0  0  0  0  0  0  0  0  0  0
   38.2800   27.8050   54.1190 C   0  0  0  0  0  0  0  0  0  0  0  0
   38.8520   28.5260   52.8930 C   0  0  0  0  0  0  0  0  0  0  0  0
   39.0230   27.8040   51.6430 C   0  0  0  0  0  0  0  0  0  0  0  0
   39.8130   28.4800   50.5080 C   0  0  0  0  0  0  0  0  0  0  0  0
   40.1450   29.9800   50.5650 C   0  0  0  0  0  0  0  0  0  0  0  0
   40.0120   30.5980   51.9650 C   0  0  0  0  0  0  0  0  0  0  0  0
   39.4270   29.8490   53.1190 C   0  0  0  0  0  0  0  0  0  0  0  0
   39.1880   30.5520   54.5680 C   0  0  0  0  0  0  0  0  0  0  0  0
   37.0250   35.3840   59.7420 C   0  0  0  0  0  0  0  0  0  0  0  0
   37.3620   36.3950   60.7980 C   0  0  0  0  0  0  0  0  0  0  0  0
   39.1401   37.4798   63.0960 H   0  0  0  0  0  0  0  0  0  0  0  0
   40.1645   37.6638   61.6319 H   0  0  0  0  0  0  0  0  0  0  0  0
   38.4784   38.2831   61.6319 H   0  0  0  0  0  0  0  0  0  0  0  0
   40.7070   35.0979   61.6756 H   0  0  0  0  0  0  0  0  0  0  0  0
   39.9557   33.2864   59.8413 H   0  0  0  0  0  0  0  0  0  0  0  0
   36.7300   33.0620   58.1600 H   0  0  0  0  0  0  0  0  0  0  0  0
   39.1089   31.6938   59.5316 H   0  0  0  0  0  0  0  0  0  0  0  0
   37.5504   30.8801   59.3470 H   0  0  0  0  0  0  0  0  0  0  0  0
   38.0447   31.9823   56.8808 H   0  0  0  0  0  0  0  0  0  0  0  0
   39.6810   31.3029   57.5923 H   0  0  0  0  0  0  0  0  0  0  0  0
   37.3380   29.7933   56.4351 H   0  0  0  0  0  0  0  0  0  0  0  0
   38.3623   29.2313   58.9995 H   0  0  0  0  0  0  0  0  0  0  0  0
   37.5119   28.0720   57.9227 H   0  0  0  0  0  0  0  0  0  0  0  0
   39.3066   28.1470   57.9227 H   0  0  0  0  0  0  0  0  0  0  0  0
   40.3851   29.6155   56.0654 H   0  0  0  0  0  0  0  0  0  0  0  0
   40.0866   27.5549   55.1355 H   0  0  0  0  0  0  0  0  0  0  0  0
   38.5413   27.5541   56.1465 H   0  0  0  0  0  0  0  0  0  0  0  0
   38.2305   26.7272   53.9050 H   0  0  0  0  0  0  0  0  0  0  0  0
   37.2810   28.2197   54.3190 H   0  0  0  0  0  0  0  0  0  0  0  0
   38.5978   26.7981   51.5113 H   0  0  0  0  0  0  0  0  0  0  0  0
   40.1440   27.8826   49.6457 H   0  0  0  0  0  0  0  0  0  0  0  0
   40.4507   30.5595   49.6814 H   0  0  0  0  0  0  0  0  0  0  0  0
   40.3599   31.6293   52.1242 H   0  0  0  0  0  0  0  0  0  0  0  0
   39.9285   31.3540   54.7040 H   0  0  0  0  0  0  0  0  0  0  0  0
   38.1662   30.9585   54.5931 H   0  0  0  0  0  0  0  0  0  0  0  0
   36.1145   35.5237   59.1408 H   0  0  0  0  0  0  0  0  0  0  0  0
   36.6705   37.2158   61.0393 H   0  0  0  0  0  0  0  0  0  0  0  0
  1  2  1  0
  2  3  1  0
  3  4  2  0
  4  5  1  0
  5  6  1  0
  6  7  1  0
  7  8  1  0
  8  9  1  0
  9 10  1  0
  9 11  1  0
 11 12  1  0
 12 13  1  0
 13 14  1  0
 14 15  2  0
 15 16  1  0
 16 17  2  0
 17 18  1  0
 18 19  2  0
 19 20  1  0
  5 21  2  0
 21 22  1  0
 22  2  2  0
 20 11  1  0
 19 14  1  0
  1 23  1  0
  1 24  1  0
  1 25  1  0
  3 26  1  0
  4 27  1  0
  6 28  1  0
  7 29  1  0
  7 30  1  0
  8 31  1  0
  8 32  1  0
  9 33  1  6
 10 34  1  0
 10 35  1  0
 10 36  1  0
 11 37  1  1
 12 38  1  0
 12 39  1  0
 13 40  1  0
 13 41  1  0
 15 42  1  0
 16 43  1  0
 17 44  1  0
 18 45  1  0
 20 46  1  0
 20 47  1  0
 21 48  1  0
 22 49  1  0
M  END
>  <docking_score>  (21) 
-10.14

>  <plif_similarity>  (21) 
0.556

$$$$
DiffSBDD_34
     RDKit          3D

 82 85  0  0  0  0  0  0  0  0999 V2000
   38.2640   33.4360   48.8130 C   0  0  0  0  0  0  0  0  0  0  0  0
   39.0190   32.2670   48.9560 O   0  0  0  0  0  0  0  0  0  0  0  0
   39.4190   31.3740   50.3160 C   0  0  0  0  0  0  0  0  0  0  0  0
   40.4700   30.4340   49.9380 C   0  0  0  0  0  0  0  0  0  0  0  0
   40.1650   29.0200   50.1750 O   0  0  0  0  0  0  0  0  0  0  0  0
   39.1730   28.6430   50.9470 C   0  0  1  0  0  0  0  0  0  0  0  0
   39.2310   27.6050   51.4870 C   0  0  0  0  0  0  0  0  0  0  0  0
   39.5620   28.8510   52.3500 C   0  0  2  0  0  0  0  0  0  0  0  0
   38.9280   28.7040   53.6900 N   0  0  0  0  0  0  0  0  0  0  0  0
   38.2650   30.0020   54.0410 C   0  0  0  0  0  0  0  0  0  0  0  0
   39.0180   30.9430   55.1510 C   0  0  0  0  0  0  0  0  0  0  0  0
   38.2060   31.6180   56.0180 C   0  0  2  0  0  0  0  0  0  0  0  0
   37.8940   32.9740   55.7090 O   0  0  0  0  0  0  0  0  0  0  0  0
   38.6280   31.6130   57.4810 C   0  0  1  0  0  0  0  0  0  0  0  0
   37.7750   31.9770   58.4150 N   0  0  0  0  0  0  0  0  0  0  0  0
   37.3110   32.8110   59.3970 C   0  0  0  0  0  0  0  0  0  0  0  0
   38.0650   34.2820   59.3940 C   0  0  0  0  0  0  0  0  0  0  0  0
   38.3190   35.1340   60.3670 C   0  0  2  0  0  0  0  0  0  0  0  0
   37.6630   36.5640   60.2850 C   0  0  0  0  0  0  0  0  0  0  0  0
   36.6550   36.4120   59.1750 N   0  0  0  0  0  0  0  0  0  0  0  0
   39.5520   35.0330   61.2970 C   0  0  0  0  0  0  0  0  0  0  0  0
   40.2810   33.9380   61.4460 C   0  0  0  0  0  0  0  0  0  0  0  0
   41.1740   34.1190   62.3980 C   0  0  0  0  0  0  0  0  0  0  0  0
   41.1260   35.7640   62.9800 S   0  0  0  0  0  0  0  0  0  0  0  0
   39.8840   36.1210   62.0480 C   0  0  0  0  0  0  0  0  0  0  0  0
   38.7300   30.2430   57.6130 O   0  0  0  0  0  0  0  0  0  0  0  0
   39.0430   29.6500   58.7250 C   0  0  0  0  0  0  0  0  0  0  0  0
   38.3970   29.7050   59.6300 O   0  0  0  0  0  0  0  0  0  0  0  0
   40.1790   28.7340   58.6000 C   0  0  1  0  0  0  0  0  0  0  0  0
   41.4820   27.5570   58.2640 C   0  0  0  0  0  0  0  0  0  0  0  0
   39.8190   27.2260   58.5190 C   0  0  2  0  0  0  0  0  0  0  0  0
   38.9340   26.7810   57.3020 C   0  0  2  0  0  0  0  0  0  0  0  0
   38.8780   25.3290   57.3030 C   0  0  0  0  0  0  0  0  0  0  0  0
   37.4320   24.7340   57.1220 C   0  0  0  0  0  0  0  0  0  0  0  0
   39.8320   24.6090   57.2710 O   0  0  0  0  0  0  0  0  0  0  0  0
   38.0690   27.4520   56.3120 C   0  0  0  0  0  0  0  0  0  0  0  0
   38.4850   27.2050   54.5120 S   0  0  0  0  0  0  0  0  0  0  0  0
   39.4120   26.1120   54.4310 O   0  0  0  0  0  0  0  0  0  0  0  0
   37.2510   26.7770   53.9260 O   0  0  0  0  0  0  0  0  0  0  0  0
   38.0086   33.8315   49.8072 H   0  0  0  0  0  0  0  0  0  0  0  0
   38.8493   34.1851   48.2597 H   0  0  0  0  0  0  0  0  0  0  0  0
   37.3404   33.2106   48.2597 H   0  0  0  0  0  0  0  0  0  0  0  0
   39.7829   32.0432   51.1096 H   0  0  0  0  0  0  0  0  0  0  0  0
   38.5384   30.8345   50.6947 H   0  0  0  0  0  0  0  0  0  0  0  0
   40.6698   30.5625   48.8640 H   0  0  0  0  0  0  0  0  0  0  0  0
   41.3318   30.6695   50.5797 H   0  0  0  0  0  0  0  0  0  0  0  0
   38.3484   28.9955   50.3099 H   0  0  0  0  0  0  0  0  0  0  0  0
   38.3043   27.0449   51.6808 H   0  0  0  0  0  0  0  0  0  0  0  0
   39.7688   26.6699   51.2718 H   0  0  0  0  0  0  0  0  0  0  0  0
   40.2205   29.6114   52.7951 H   0  0  0  0  0  0  0  0  0  0  0  0
   38.1730   30.5891   53.1153 H   0  0  0  0  0  0  0  0  0  0  0  0
   37.3092   29.7190   54.5062 H   0  0  0  0  0  0  0  0  0  0  0  0
   39.6805   30.2966   55.7454 H   0  0  0  0  0  0  0  0  0  0  0  0
   39.5424   31.7185   54.5734 H   0  0  0  0  0  0  0  0  0  0  0  0
   37.3115   30.9956   55.8680 H   0  0  0  0  0  0  0  0  0  0  0  0
   37.6590   33.4570   56.5410 H   0  0  0  0  0  0  0  0  0  0  0  0
   39.4632   32.3124   57.6336 H   0  0  0  0  0  0  0  0  0  0  0  0
   36.9260   31.9690   57.8330 H   0  0  0  0  0  0  0  0  0  0  0  0
   38.4190   31.5730   59.1110 H   0  0  0  0  0  0  0  0  0  0  0  0
   36.2329   32.9679   59.2450 H   0  0  0  0  0  0  0  0  0  0  0  0
   37.5201   32.3326   60.3652 H   0  0  0  0  0  0  0  0  0  0  0  0
   39.0569   34.0662   58.9703 H   0  0  0  0  0  0  0  0  0  0  0  0
   37.2413   34.8494   58.9361 H   0  0  0  0  0  0  0  0  0  0  0  0
   37.6954   34.4823   60.9967 H   0  0  0  0  0  0  0  0  0  0  0  0
   37.1707   36.8279   61.2326 H   0  0  0  0  0  0  0  0  0  0  0  0
   38.3932   37.3657   60.1004 H   0  0  0  0  0  0  0  0  0  0  0  0
   37.0720   36.7260   58.2870 H   0  0  0  0  0  0  0  0  0  0  0  0
   36.3800   35.4220   59.0940 H   0  0  0  0  0  0  0  0  0  0  0  0
   35.8230   36.9820   59.3850 H   0  0  0  0  0  0  0  0  0  0  0  0
   40.1593   33.0140   60.8617 H   0  0  0  0  0  0  0  0  0  0  0  0
   41.8552   33.3413   62.7738 H   0  0  0  0  0  0  0  0  0  0  0  0
   39.3735   37.0948   62.0156 H   0  0  0  0  0  0  0  0  0  0  0  0
   39.6035   27.9501   59.1142 H   0  0  0  0  0  0  0  0  0  0  0  0
   41.9319   27.4758   57.2635 H   0  0  0  0  0  0  0  0  0  0  0  0
   42.4507   27.2630   58.6943 H   0  0  0  0  0  0  0  0  0  0  0  0
   39.3157   26.5309   59.2072 H   0  0  0  0  0  0  0  0  0  0  0  0
   38.0388   26.8160   57.9402 H   0  0  0  0  0  0  0  0  0  0  0  0
   36.9849   24.5500   58.1101 H   0  0  0  0  0  0  0  0  0  0  0  0
   36.8085   25.4487   56.5647 H   0  0  0  0  0  0  0  0  0  0  0  0
   37.4921   23.7875   56.5647 H   0  0  0  0  0  0  0  0  0  0  0  0
   37.0430   27.0872   56.4677 H   0  0  0  0  0  0  0  0  0  0  0  0
   38.2136   28.5276   56.4916 H   0  0  0  0  0  0  0  0  0  0  0  0
  1  2  1  0
  2  3  1  0
  3  4  1  0
  4  5  1  0
  5  6  1  0
  6  7  1  0
  7  8  1  0
  8  9  1  0
  9 10  1  0
 10 11  1  0
 11 12  1  0
 12 13  1  0
 12 14  1  0
 14 15  1  0
 15 16  1  0
 16 17  1  0
 17 18  1  0
 18 19  1  0
 19 20  1  0
 18 21  1  0
 21 22  1  0
 22 23  2  0
 23 24  1  0
 24 25  1  0
 14 26  1  0
 26 27  1  0
 27 28  2  0
 27 29  1  0
 29 30  1  0
 30 31  1  0
 31 32  1  0
 32 33  1  0
 33 34  1  0
 33 35  2  0
 32 36  1  0
 36 37  1  0
 37 38  2  0
 37 39  2  0
  8  6  1  0
 37  9  1  0
 25 21  2  0
 31 29  1  0
  1 40  1  0
  1 41  1  0
  1 42  1  0
  3 43  1  0
  3 44  1  0
  4 45  1  0
  4 46  1  0
  6 47  1  6
  7 48  1  0
  7 49  1  0
  8 50  1  6
 10 51  1  0
 10 52  1  0
 11 53  1  0
 11 54  1  0
 12 55  1  1
 13 56  1  0
 14 57  1  6
 15 58  1  0
 15 59  1  0
 16 60  1  0
 16 61  1  0
 17 62  1  0
 17 63  1  0
 18 64  1  1
 19 65  1  0
 19 66  1  0
 20 67  1  0
 20 68  1  0
 20 69  1  0
 22 70  1  0
 23 71  1  0
 25 72  1  0
 29 73  1  1
 30 74  1  0
 30 75  1  0
 31 76  1  1
 32 77  1  6
 34 78  1  0
 34 79  1  0
 34 80  1  0
 36 81  1  0
 36 82  1  0
M  CHG  2  15   1  20   1
M  END
>  <docking_score>  (22) 
-10.508

>  <plif_similarity>  (22) 
0.333

$$$$
DiffSBDD_35
     RDKit          3D

 34 34  0  0  0  0  0  0  0  0999 V2000
   39.0090   26.8610   58.8410 O   0  0  0  0  0  0  0  0  0  0  0  0
   39.2230   25.9440   58.0960 C   0  0  0  0  0  0  0  0  0  0  0  0
   40.4110   25.8270   57.5100 O   0  0  0  0  0  0  0  0  0  0  0  0
   38.2510   24.8550   57.6950 C   0  0  0  0  0  0  0  0  0  0  0  0
   37.1830   25.3320   56.6440 C   0  0  0  0  0  0  0  0  0  0  0  0
   37.8730   25.4990   55.2800 C   0  0  0  0  0  0  0  0  0  0  0  0
   37.4280   26.8650   54.7150 C   0  0  0  0  0  0  0  0  0  0  0  0
   37.9790   27.9630   54.9060 C   0  0  1  0  0  0  0  0  0  0  0  0
   38.4530   28.9390   55.9420 C   0  0  0  0  0  0  0  0  0  0  0  0
   38.8810   28.9260   54.4350 N   0  0  0  0  0  0  0  0  0  0  0  0
   39.5970   30.1830   54.2400 C   0  0  0  0  0  0  0  0  0  0  0  0
   39.5790   30.6820   52.9440 C   0  0  0  0  0  0  0  0  0  0  0  0
   40.2740   30.2030   51.6180 C   0  0  0  0  0  0  0  0  0  0  0  0
   39.5420   29.1630   50.9300 C   0  0  0  0  0  0  0  0  0  0  0  0
   39.5220   27.3620   51.5080 Cl  0  0  0  0  0  0  0  0  0  0  0  0
   38.8210   24.0209   57.2599 H   0  0  0  0  0  0  0  0  0  0  0  0
   37.7051   24.5549   58.6016 H   0  0  0  0  0  0  0  0  0  0  0  0
   36.3819   24.5824   56.5641 H   0  0  0  0  0  0  0  0  0  0  0  0
   36.7460   26.2899   56.9624 H   0  0  0  0  0  0  0  0  0  0  0  0
   38.9658   25.4792   55.4042 H   0  0  0  0  0  0  0  0  0  0  0  0
   37.5967   24.6822   54.5970 H   0  0  0  0  0  0  0  0  0  0  0  0
   37.4246   26.7341   53.6228 H   0  0  0  0  0  0  0  0  0  0  0  0
   36.5144   27.0164   55.3087 H   0  0  0  0  0  0  0  0  0  0  0  0
   37.1864   27.2652   54.5980 H   0  0  0  0  0  0  0  0  0  0  0  0
   37.7826   29.7189   56.3323 H   0  0  0  0  0  0  0  0  0  0  0  0
   38.9467   28.9011   56.9243 H   0  0  0  0  0  0  0  0  0  0  0  0
   39.1451   30.9374   54.9008 H   0  0  0  0  0  0  0  0  0  0  0  0
   40.6517   29.9708   54.4693 H   0  0  0  0  0  0  0  0  0  0  0  0
   38.5097   30.6890   52.6859 H   0  0  0  0  0  0  0  0  0  0  0  0
   40.2488   31.5341   53.1320 H   0  0  0  0  0  0  0  0  0  0  0  0
   40.3705   31.0664   50.9433 H   0  0  0  0  0  0  0  0  0  0  0  0
   41.2514   29.7824   51.8970 H   0  0  0  0  0  0  0  0  0  0  0  0
   38.4915   29.4891   50.9180 H   0  0  0  0  0  0  0  0  0  0  0  0
   40.1039   29.0853   49.9875 H   0  0  0  0  0  0  0  0  0  0  0  0
  1  2  2  0
  2  3  1  0
  2  4  1  0
  4  5  1  0
  5  6  1  0
  6  7  1  0
  7  8  1  0
  8  9  1  0
  9 10  1  0
 10 11  1  0
 11 12  1  0
 12 13  1  0
 13 14  1  0
 14 15  1  0
 10  8  1  0
  4 16  1  0
  4 17  1  0
  5 18  1  0
  5 19  1  0
  6 20  1  0
  6 21  1  0
  7 22  1  0
  7 23  1  0
  8 24  1  6
  9 25  1  0
  9 26  1  0
 11 27  1  0
 11 28  1  0
 12 29  1  0
 12 30  1  0
 13 31  1  0
 13 32  1  0
 14 33  1  0
 14 34  1  0
M  CHG  1   3  -1
M  END
>  <docking_score>  (23) 
-5.696

>  <plif_similarity>  (23) 
0.444

$$$$
DiffSBDD_36
     RDKit          3D

 79 82  0  0  0  0  0  0  0  0999 V2000
   38.2920   33.2080   57.6520 C   0  0  0  0  0  0  0  0  0  0  0  0
   37.1730   33.9390   58.5370 O   0  0  0  0  0  0  0  0  0  0  0  0
   37.8850   33.9550   59.7690 C   0  0  2  0  0  0  0  0  0  0  0  0
   39.1870   33.7740   60.4060 C   0  0  0  0  0  0  0  0  0  0  0  0
   39.8240   32.7510   61.1300 C   0  0  2  0  0  0  0  0  0  0  0  0
   39.6340   31.5440   61.6460 C   0  0  1  0  0  0  0  0  0  0  0  0
   39.2130   30.2540   61.0500 C   0  0  2  0  0  0  0  0  0  0  0  0
   39.2610   28.9100   61.9240 O   0  0  0  0  0  0  0  0  0  0  0  0
   39.2700   29.7830   59.4140 C   0  0  0  0  0  0  0  0  0  0  0  0
   38.0130   29.8110   58.9750 C   0  0  0  0  0  0  0  0  0  0  0  0
   37.9670   29.4580   57.7860 C   0  0  0  0  0  0  0  0  0  0  0  0
   37.8210   29.5310   56.2670 C   0  0  0  0  0  0  0  0  0  0  0  0
   36.9240   30.0390   55.6470 O   0  0  0  0  0  0  0  0  0  0  0  0
   39.0590   29.0840   55.8530 N   0  0  0  0  0  0  0  0  0  0  0  0
   39.3110   29.2240   54.4920 C   0  0  0  0  0  0  0  0  0  0  0  0
   39.7210   30.5000   53.9390 C   0  0  0  0  0  0  0  0  0  0  0  0
   39.7550   30.4540   52.5700 C   0  0  0  0  0  0  0  0  0  0  0  0
   39.3590   29.1510   52.1440 N   0  0  0  0  0  0  0  0  0  0  0  0
   39.4390   28.5490   50.8180 C   0  0  0  0  0  0  0  0  0  0  0  0
   39.0310   28.3340   53.2710 C   0  0  0  0  0  0  0  0  0  0  0  0
   40.3450   32.0320   62.3830 C   0  0  2  0  0  0  0  0  0  0  0  0
   41.0920   33.4700   63.0780 C   0  0  0  0  0  0  0  0  0  0  0  0
   41.7980   32.9760   64.4710 C   0  0  0  0  0  0  0  0  0  0  0  0
   42.8320   33.0660   65.3590 C   0  0  0  0  0  0  0  0  0  0  0  0
   43.9440   32.2910   66.4610 O   0  0  0  0  0  0  0  0  0  0  0  0
   43.7930   30.7410   65.7380 C   0  0  0  0  0  0  0  0  0  0  0  0
   42.5040   30.1690   65.2790 C   0  0  0  0  0  0  0  0  0  0  0  0
   41.9620   30.3340   63.8150 C   0  0  1  0  0  0  0  0  0  0  0  0
   41.7140   29.6090   62.5940 O   0  0  0  0  0  0  0  0  0  0  0  0
   41.7830   31.2330   63.3980 C   0  0  0  0  0  0  0  0  0  0  0  0
   36.8230   34.5540   60.7230 C   0  0  0  0  0  0  0  0  0  0  0  0
   37.0690   35.6600   61.5380 O   0  0  0  0  0  0  0  0  0  0  0  0
   37.1220   36.9160   60.7900 C   0  0  0  0  0  0  0  0  0  0  0  0
   36.2260   32.8430   61.1300 C   0  0  0  0  0  0  0  0  0  0  0  0
   35.8380   33.7960   60.2590 C   0  0  0  0  0  0  0  0  0  0  0  0
   39.0273   32.7277   58.3143 H   0  0  0  0  0  0  0  0  0  0  0  0
   37.8171   32.4454   57.0172 H   0  0  0  0  0  0  0  0  0  0  0  0
   38.7995   33.9493   57.0172 H   0  0  0  0  0  0  0  0  0  0  0  0
   38.1017   35.0244   59.6298 H   0  0  0  0  0  0  0  0  0  0  0  0
   39.8854   33.9475   59.5740 H   0  0  0  0  0  0  0  0  0  0  0  0
   38.9278   34.3619   61.2988 H   0  0  0  0  0  0  0  0  0  0  0  0
   40.1118   33.4793   60.3575 H   0  0  0  0  0  0  0  0  0  0  0  0
   38.8599   30.7957   61.8714 H   0  0  0  0  0  0  0  0  0  0  0  0
   38.3133   30.8860   61.0846 H   0  0  0  0  0  0  0  0  0  0  0  0
   38.7610   28.1950   61.4580 H   0  0  0  0  0  0  0  0  0  0  0  0
   39.8911   30.4838   58.8369 H   0  0  0  0  0  0  0  0  0  0  0  0
   39.7119   28.7821   59.3003 H   0  0  0  0  0  0  0  0  0  0  0  0
   37.4009   29.1270   59.5812 H   0  0  0  0  0  0  0  0  0  0  0  0
   37.6254   30.8369   59.0605 H   0  0  0  0  0  0  0  0  0  0  0  0
   38.9591   28.9831   57.7762 H   0  0  0  0  0  0  0  0  0  0  0  0
   36.8761   29.5868   57.8445 H   0  0  0  0  0  0  0  0  0  0  0  0
   39.7450   28.6770   56.5040 H   0  0  0  0  0  0  0  0  0  0  0  0
   39.9715   31.3873   54.5389 H   0  0  0  0  0  0  0  0  0  0  0  0
   40.0406   31.2849   51.9082 H   0  0  0  0  0  0  0  0  0  0  0  0
   39.5833   27.4630   50.9165 H   0  0  0  0  0  0  0  0  0  0  0  0
   38.5067   28.7467   50.2687 H   0  0  0  0  0  0  0  0  0  0  0  0
   40.2873   28.9833   50.2687 H   0  0  0  0  0  0  0  0  0  0  0  0
   38.6605   27.2983   53.2651 H   0  0  0  0  0  0  0  0  0  0  0  0
   41.8464   33.8802   62.3905 H   0  0  0  0  0  0  0  0  0  0  0  0
   40.3524   34.2641   63.2580 H   0  0  0  0  0  0  0  0  0  0  0  0
   40.9651   33.1745   65.1616 H   0  0  0  0  0  0  0  0  0  0  0  0
   42.3780   32.2391   63.8961 H   0  0  0  0  0  0  0  0  0  0  0  0
   43.5641   33.5705   64.7113 H   0  0  0  0  0  0  0  0  0  0  0  0
   42.0992   33.1345   66.1765 H   0  0  0  0  0  0  0  0  0  0  0  0
   44.4452   30.7587   64.8524 H   0  0  0  0  0  0  0  0  0  0  0  0
   44.0245   30.0856   66.5906 H   0  0  0  0  0  0  0  0  0  0  0  0
   42.5752   29.0854   65.4542 H   0  0  0  0  0  0  0  0  0  0  0  0
   41.7828   30.7747   65.8473 H   0  0  0  0  0  0  0  0  0  0  0  0
   42.9772   30.5741   63.4662 H   0  0  0  0  0  0  0  0  0  0  0  0
   40.7840   29.7720   62.2960 H   0  0  0  0  0  0  0  0  0  0  0  0
   41.8780   31.9162   64.2549 H   0  0  0  0  0  0  0  0  0  0  0  0
   42.4154   31.0462   62.5176 H   0  0  0  0  0  0  0  0  0  0  0  0
   37.1576   37.7607   61.4938 H   0  0  0  0  0  0  0  0  0  0  0  0
   38.0215   36.9280   60.1569 H   0  0  0  0  0  0  0  0  0  0  0  0
   36.2268   37.0038   60.1569 H   0  0  0  0  0  0  0  0  0  0  0  0
   36.7684   31.9416   60.8085 H   0  0  0  0  0  0  0  0  0  0  0  0
   35.8416   32.2527   61.9749 H   0  0  0  0  0  0  0  0  0  0  0  0
   35.9373   33.5152   59.2001 H   0  0  0  0  0  0  0  0  0  0  0  0
   34.7998   34.1581   60.2282 H   0  0  0  0  0  0  0  0  0  0  0  0
  1  2  1  0
  2  3  1  0
  3  4  1  0
  4  5  1  0
  5  6  1  0
  6  7  1  0
  7  8  1  0
  7  9  1  0
  9 10  1  0
 10 11  1  0
 11 12  1  0
 12 13  2  0
 12 14  1  0
 14 15  1  0
 15 16  1  0
 16 17  2  0
 17 18  1  0
 18 19  1  0
 18 20  1  0
  6 21  1  0
 21 22  1  1
 22 23  1  0
 23 24  1  0
 24 25  1  0
 25 26  1  0
 26 27  1  0
 27 28  1  0
 28 29  1  0
 28 30  1  0
  3 31  1  0
 31 32  1  0
 32 33  1  0
 31 34  1  0
 34 35  1  0
 21  5  1  0
 35 31  1  0
 20 15  2  0
 30 21  1  0
  1 36  1  0
  1 37  1  0
  1 38  1  0
  3 39  1  1
  4 40  1  0
  4 41  1  0
  5 42  1  6
  6 43  1  1
  7 44  1  6
  8 45  1  0
  9 46  1  0
  9 47  1  0
 10 48  1  0
 10 49  1  0
 11 50  1  0
 11 51  1  0
 14 52  1  0
 16 53  1  0
 17 54  1  0
 19 55  1  0
 19 56  1  0
 19 57  1  0
 20 58  1  0
 22 59  1  0
 22 60  1  0
 23 61  1  0
 23 62  1  0
 24 63  1  0
 24 64  1  0
 26 65  1  0
 26 66  1  0
 27 67  1  0
 27 68  1  0
 28 69  1  1
 29 70  1  0
 30 71  1  0
 30 72  1  0
 33 73  1  0
 33 74  1  0
 33 75  1  0
 34 76  1  0
 34 77  1  0
 35 78  1  0
 35 79  1  0
M  END
>  <docking_score>  (24) 
-9.494

>  <plif_similarity>  (24) 
0.333

$$$$
DiffSBDD_37
     RDKit          3D

 52 52  0  0  0  0  0  0  0  0999 V2000
   37.0770   30.1640   55.9230 O   0  0  0  0  0  0  0  0  0  0  0  0
   38.2460   29.9680   56.0980 C   0  0  0  0  0  0  0  0  0  0  0  0
   39.2260   30.6650   55.2330 C   0  0  0  0  0  0  0  0  0  0  0  0
   38.4130   31.9990   55.1620 C   0  0  0  0  0  0  0  0  0  0  0  0
   37.9680   32.7610   56.2170 O   0  0  0  0  0  0  0  0  0  0  0  0
   39.2480   29.5150   57.1090 C   0  0  0  0  0  0  0  0  0  0  0  0
   38.5200   28.6650   58.1570 C   0  0  0  0  0  0  0  0  0  0  0  0
   38.6210   27.2120   58.2830 C   0  0  0  0  0  0  0  0  0  0  0  0
   40.1080   26.6910   57.9730 C   0  0  0  0  0  0  0  0  0  0  0  0
   40.1210   25.4400   57.3940 N   0  0  0  0  0  0  0  0  0  0  0  0
   38.9350   25.2580   56.6540 C   0  0  0  0  0  0  0  0  0  0  0  0
   39.3340   25.8300   55.1850 C   0  0  0  0  0  0  0  0  0  0  0  0
   37.7360   25.9820   54.6730 C   0  0  0  0  0  0  0  0  0  0  0  0
   37.6190   27.3660   53.9570 C   0  0  0  0  0  0  0  0  0  0  0  0
   38.6370   27.5180   53.0430 C   0  0  0  0  0  0  0  0  0  0  0  0
   38.7010   27.3750   51.7580 C   0  0  0  0  0  0  0  0  0  0  0  0
   39.4710   28.2170   50.9220 C   0  0  0  0  0  0  0  0  0  0  0  0
   40.2170   29.2730   51.3470 C   0  0  0  0  0  0  0  0  0  0  0  0
   39.9240   30.7210   51.2100 C   0  0  0  0  0  0  0  0  0  0  0  0
   40.4620   30.0470   50.1470 C   0  0  0  0  0  0  0  0  0  0  0  0
   40.2100   30.7862   55.7094 H   0  0  0  0  0  0  0  0  0  0  0  0
   39.5061   30.1839   54.2843 H   0  0  0  0  0  0  0  0  0  0  0  0
   39.0397   32.6797   54.5672 H   0  0  0  0  0  0  0  0  0  0  0  0
   37.4483   31.5962   54.8198 H   0  0  0  0  0  0  0  0  0  0  0  0
   36.9850   32.6750   56.2940 H   0  0  0  0  0  0  0  0  0  0  0  0
   40.0271   28.9137   56.6177 H   0  0  0  0  0  0  0  0  0  0  0  0
   39.7240   30.3834   57.5879 H   0  0  0  0  0  0  0  0  0  0  0  0
   38.8390   29.0654   59.1306 H   0  0  0  0  0  0  0  0  0  0  0  0
   37.4840   28.7588   57.7995 H   0  0  0  0  0  0  0  0  0  0  0  0
   38.3488   26.9233   59.3089 H   0  0  0  0  0  0  0  0  0  0  0  0
   37.9383   26.7560   57.5509 H   0  0  0  0  0  0  0  0  0  0  0  0
   40.5947   27.4012   57.2884 H   0  0  0  0  0  0  0  0  0  0  0  0
   40.6431   26.6203   58.9315 H   0  0  0  0  0  0  0  0  0  0  0  0
   40.9350   25.3590   56.7680 H   0  0  0  0  0  0  0  0  0  0  0  0
   40.1850   24.7200   58.1290 H   0  0  0  0  0  0  0  0  0  0  0  0
   38.6592   24.1944   56.6033 H   0  0  0  0  0  0  0  0  0  0  0  0
   38.0643   25.7643   57.0962 H   0  0  0  0  0  0  0  0  0  0  0  0
   39.8681   26.7908   55.2257 H   0  0  0  0  0  0  0  0  0  0  0  0
   40.0223   25.2353   54.5664 H   0  0  0  0  0  0  0  0  0  0  0  0
   37.4842   25.1715   53.9732 H   0  0  0  0  0  0  0  0  0  0  0  0
   37.0420   25.9188   55.5241 H   0  0  0  0  0  0  0  0  0  0  0  0
   36.6519   27.4247   53.4362 H   0  0  0  0  0  0  0  0  0  0  0  0
   37.6908   28.1655   54.7091 H   0  0  0  0  0  0  0  0  0  0  0  0
   38.9627   28.5572   53.1981 H   0  0  0  0  0  0  0  0  0  0  0  0
   39.1498   26.5760   53.2872 H   0  0  0  0  0  0  0  0  0  0  0  0
   38.1285   26.5587   51.2934 H   0  0  0  0  0  0  0  0  0  0  0  0
   39.4665   28.0013   49.8434 H   0  0  0  0  0  0  0  0  0  0  0  0
   40.6271   28.7507   52.2240 H   0  0  0  0  0  0  0  0  0  0  0  0
   38.8807   31.0669   51.1677 H   0  0  0  0  0  0  0  0  0  0  0  0
   40.2037   31.6226   51.7747 H   0  0  0  0  0  0  0  0  0  0  0  0
   39.8461   29.8677   49.2534 H   0  0  0  0  0  0  0  0  0  0  0  0
   41.3507   30.2093   49.5194 H   0  0  0  0  0  0  0  0  0  0  0  0
  1  2  2  0
  2  3  1  0
  3  4  1  0
  4  5  1  0
  2  6  1  0
  6  7  1  0
  7  8  1  0
  8  9  1  0
  9 10  1  0
 10 11  1  0
 11 12  1  0
 12 13  1  0
 13 14  1  0
 14 15  1  0
 15 16  1  0
 16 17  2  3
 17 18  1  0
 18 19  1  0
 19 20  1  0
 20 18  1  0
  3 21  1  0
  3 22  1  0
  4 23  1  0
  4 24  1  0
  5 25  1  0
  6 26  1  0
  6 27  1  0
  7 28  1  0
  7 29  1  0
  8 30  1  0
  8 31  1  0
  9 32  1  0
  9 33  1  0
 10 34  1  0
 10 35  1  0
 11 36  1  0
 11 37  1  0
 12 38  1  0
 12 39  1  0
 13 40  1  0
 13 41  1  0
 14 42  1  0
 14 43  1  0
 15 44  1  0
 15 45  1  0
 16 46  1  0
 17 47  1  0
 18 48  1  0
 19 49  1  0
 19 50  1  0
 20 51  1  0
 20 52  1  0
M  CHG  1  10   1
M  END
>  <docking_score>  (25) 
-6.511

>  <plif_similarity>  (25) 
0.556

$$$$
DiffSBDD_38
     RDKit          3D

 71 72  0  0  0  0  0  0  0  0999 V2000
   35.3450   33.1170   61.5900 C   0  0  0  0  0  0  0  0  0  0  0  0
   35.6290   32.7830   60.5190 C   0  0  0  0  0  0  0  0  0  0  0  0
   36.6750   31.8310   60.0560 N   0  0  0  0  0  0  0  0  0  0  0  0
   37.9410   32.6840   59.7970 C   0  0  2  0  0  0  0  0  0  0  0  0
   38.3270   32.1530   58.4530 C   0  0  0  0  0  0  0  0  0  0  0  0
   38.6980   30.9940   58.3640 N   0  0  0  0  0  0  0  0  0  0  0  0
   39.0770   29.8540   57.2370 C   0  0  1  0  0  0  0  0  0  0  0  0
   38.2710   28.7090   57.6100 C   0  0  2  0  0  0  0  0  0  0  0  0
   37.1270   29.0960   58.4150 F   0  0  0  0  0  0  0  0  0  0  0  0
   38.7140   27.2410   58.1730 C   0  0  0  0  0  0  0  0  0  0  0  0
   37.6050   26.3340   58.0950 F   0  0  0  0  0  0  0  0  0  0  0  0
   39.0830   27.1250   59.4450 F   0  0  0  0  0  0  0  0  0  0  0  0
   40.0130   26.9190   57.3050 C   0  0  1  0  0  0  0  0  0  0  0  0
   40.9340   26.4640   58.2410 O   0  0  0  0  0  0  0  0  0  0  0  0
   39.8070   25.9190   56.2080 C   0  0  0  0  0  0  0  0  0  0  0  0
   39.5260   26.3820   54.7850 C   0  0  1  0  0  0  0  0  0  0  0  0
   40.4540   25.5360   53.9980 C   0  0  0  0  0  0  0  0  0  0  0  0
   38.2120   26.1920   54.3400 C   0  0  2  0  0  0  0  0  0  0  0  0
   37.5670   27.2940   53.6310 N   0  0  0  0  0  0  0  0  0  0  0  0
   38.3380   27.8950   52.6600 C   0  0  0  0  0  0  0  0  0  0  0  0
   39.1390   29.0770   52.7610 C   0  0  0  0  0  0  0  0  0  0  0  0
   39.8010   29.5620   51.6230 C   0  0  0  0  0  0  0  0  0  0  0  0
   40.5510   31.0010   51.4870 F   0  0  0  0  0  0  0  0  0  0  0  0
   39.8390   28.7610   50.6110 C   0  0  0  0  0  0  0  0  0  0  0  0
   39.1190   27.7470   50.6020 C   0  0  0  0  0  0  0  0  0  0  0  0
   38.2330   27.3770   51.7680 N   0  0  0  0  0  0  0  0  0  0  0  0
   37.1700   25.9440   55.2230 O   0  0  0  0  0  0  0  0  0  0  0  0
   36.7950   24.4580   55.4170 C   0  0  0  0  0  0  0  0  0  0  0  0
   38.9300   30.5280   55.8900 C   0  0  0  0  0  0  0  0  0  0  0  0
   39.1070   31.6660   55.5140 C   0  0  0  0  0  0  0  0  0  0  0  0
   38.8610   32.9620   56.0720 C   0  0  0  0  0  0  0  0  0  0  0  0
   38.3340   33.0770   57.3360 C   0  0  0  0  0  0  0  0  0  0  0  0
   39.0250   33.3220   60.7630 C   0  0  2  0  0  0  0  0  0  0  0  0
   39.6820   32.1250   61.2750 C   0  0  0  0  0  0  0  0  0  0  0  0
   38.5900   34.9280   60.9300 C   0  0  0  0  0  0  0  0  0  0  0  0
   38.6080   36.5080   61.0420 F   0  0  0  0  0  0  0  0  0  0  0  0
   40.2240   35.2100   60.3340 F   0  0  0  0  0  0  0  0  0  0  0  0
   38.0450   35.1510   59.6360 F   0  0  0  0  0  0  0  0  0  0  0  0
   34.5312   33.8411   61.7427 H   0  0  0  0  0  0  0  0  0  0  0  0
   35.8889   32.7104   62.4553 H   0  0  0  0  0  0  0  0  0  0  0  0
   35.0318   33.2413   59.7170 H   0  0  0  0  0  0  0  0  0  0  0  0
   36.5770   30.8120   59.9340 H   0  0  0  0  0  0  0  0  0  0  0  0
   37.6852   33.7237   60.0492 H   0  0  0  0  0  0  0  0  0  0  0  0
   40.0992   29.4522   57.1774 H   0  0  0  0  0  0  0  0  0  0  0  0
   38.2059   28.4464   56.5438 H   0  0  0  0  0  0  0  0  0  0  0  0
   40.3396   27.8147   56.7563 H   0  0  0  0  0  0  0  0  0  0  0  0
   40.4850   26.3430   59.1140 H   0  0  0  0  0  0  0  0  0  0  0  0
   40.7186   25.3049   56.1657 H   0  0  0  0  0  0  0  0  0  0  0  0
   38.8687   25.4231   56.4974 H   0  0  0  0  0  0  0  0  0  0  0  0
   39.6634   27.4695   54.6927 H   0  0  0  0  0  0  0  0  0  0  0  0
   41.0906   24.9556   54.6821 H   0  0  0  0  0  0  0  0  0  0  0  0
   39.8750   24.8485   53.3639 H   0  0  0  0  0  0  0  0  0  0  0  0
   41.0852   26.1759   53.3639 H   0  0  0  0  0  0  0  0  0  0  0  0
   38.5261   25.3115   53.7603 H   0  0  0  0  0  0  0  0  0  0  0  0
   36.6060   27.6000   53.8410 H   0  0  0  0  0  0  0  0  0  0  0  0
   39.2348   29.6010   53.7234 H   0  0  0  0  0  0  0  0  0  0  0  0
   40.5045   28.9743   49.7615 H   0  0  0  0  0  0  0  0  0  0  0  0
   39.1277   27.0973   49.7144 H   0  0  0  0  0  0  0  0  0  0  0  0
   36.7379   24.2316   56.4919 H   0  0  0  0  0  0  0  0  0  0  0  0
   35.8192   24.2619   54.9486 H   0  0  0  0  0  0  0  0  0  0  0  0
   37.5609   23.8224   54.9486 H   0  0  0  0  0  0  0  0  0  0  0  0
   39.5920   29.9393   55.2380 H   0  0  0  0  0  0  0  0  0  0  0  0
   37.8314   30.5816   55.9070 H   0  0  0  0  0  0  0  0  0  0  0  0
   39.5614   31.7153   54.5134 H   0  0  0  0  0  0  0  0  0  0  0  0
   39.0939   33.8652   55.4889 H   0  0  0  0  0  0  0  0  0  0  0  0
   38.8190   33.9769   57.7422 H   0  0  0  0  0  0  0  0  0  0  0  0
   37.2785   32.9521   57.0526 H   0  0  0  0  0  0  0  0  0  0  0  0
   39.9591   33.8197   61.0626 H   0  0  0  0  0  0  0  0  0  0  0  0
   39.6720   32.1432   62.3748 H   0  0  0  0  0  0  0  0  0  0  0  0
   39.1474   31.2323   60.9182 H   0  0  0  0  0  0  0  0  0  0  0  0
   40.7221   32.0966   60.9182 H   0  0  0  0  0  0  0  0  0  0  0  0
  1  2  2  0
  2  3  1  0
  3  4  1  0
  4  5  1  0
  5  6  2  0
  6  7  1  0
  7  8  1  0
  8  9  1  0
  8 10  1  0
 10 11  1  0
 10 12  1  0
 10 13  1  0
 13 14  1  0
 13 15  1  0
 15 16  1  0
 16 17  1  0
 16 18  1  0
 18 19  1  0
 19 20  1  0
 20 21  2  0
 21 22  1  0
 22 23  1  0
 22 24  2  0
 24 25  1  0
 25 26  2  0
 18 27  1  0
 27 28  1  0
  7 29  1  0
 29 30  1  0
 30 31  2  0
 31 32  1  0
  4 33  1  0
 33 34  1  0
 33 35  1  0
 35 36  1  0
 35 37  1  0
 35 38  1  0
 32  5  1  0
 26 20  1  0
  1 39  1  0
  1 40  1  0
  2 41  1  0
  3 42  1  0
  4 43  1  6
  7 44  1  1
  8 45  1  6
 13 46  1  6
 14 47  1  0
 15 48  1  0
 15 49  1  0
 16 50  1  1
 17 51  1  0
 17 52  1  0
 17 53  1  0
 18 54  1  6
 19 55  1  0
 21 56  1  0
 24 57  1  0
 25 58  1  0
 28 59  1  0
 28 60  1  0
 28 61  1  0
 29 62  1  0
 29 63  1  0
 30 64  1  0
 31 65  1  0
 32 66  1  0
 32 67  1  0
 33 68  1  6
 34 69  1  0
 34 70  1  0
 34 71  1  0
M  END
>  <docking_score>  (26) 
-10.107

>  <plif_similarity>  (26) 
0.222

$$$$
DiffSBDD_41
     RDKit          3D

 70 74  0  0  0  0  0  0  0  0999 V2000
   36.0420   34.1430   61.5680 C   0  0  0  0  0  0  0  0  0  0  0  0
   37.2530   35.0560   61.0950 C   0  0  2  0  0  0  0  0  0  0  0  0
   37.5980   36.5190   61.1610 C   0  0  0  0  0  0  0  0  0  0  0  0
   36.8390   37.4520   60.7890 O   0  0  0  0  0  0  0  0  0  0  0  0
   39.0450   36.6070   61.2830 N   0  0  0  0  0  0  0  0  0  0  0  0
   39.6220   37.5970   62.2560 C   0  0  0  0  0  0  0  0  0  0  0  0
   40.9320   37.2220   62.7300 O   0  0  0  0  0  0  0  0  0  0  0  0
   39.5280   35.2860   61.0050 C   0  0  0  0  0  0  0  0  0  0  0  0
   40.6730   34.8710   61.2300 O   0  0  0  0  0  0  0  0  0  0  0  0
   38.4490   34.4620   60.5440 C   0  0  0  0  0  0  0  0  0  0  0  0
   38.6210   33.4600   59.6410 C   0  0  0  0  0  0  0  0  0  0  0  0
   37.7440   32.5100   58.9390 O   0  0  0  0  0  0  0  0  0  0  0  0
   38.2960   31.2510   58.6930 C   0  0  1  0  0  0  0  0  0  0  0  0
   37.7490   30.1720   59.5550 C   0  0  0  0  0  0  0  0  0  0  0  0
   37.9650   31.0570   57.2020 C   0  0  2  0  0  0  0  0  0  0  0  0
   37.6220   29.6830   56.9720 O   0  0  0  0  0  0  0  0  0  0  0  0
   38.3960   28.6020   56.3280 C   0  0  0  0  0  0  0  0  0  0  0  0
   39.9320   28.5540   56.8130 C   0  0  0  0  0  0  0  0  0  0  0  0
   40.4600   27.5580   57.7980 C   0  0  0  0  0  0  0  0  0  0  0  0
   40.3170   26.1010   57.6090 C   0  0  0  0  0  0  0  0  0  0  0  0
   39.0680   25.9770   56.6300 C   0  0  0  0  0  0  0  0  0  0  0  0
   38.0470   27.0820   56.7930 C   0  0  0  0  0  0  0  0  0  0  0  0
   37.8410   28.6750   54.8790 C   0  0  0  0  0  0  0  0  0  0  0  0
   38.6600   29.3320   53.8790 N   0  0  0  0  0  0  0  0  0  0  0  0
   39.2060   30.5340   53.9730 C   0  0  0  0  0  0  0  0  0  0  0  0
   39.8060   30.7930   52.8140 C   0  0  0  0  0  0  0  0  0  0  0  0
   39.6710   29.7320   52.0040 C   0  0  0  0  0  0  0  0  0  0  0  0
   40.1580   29.5400   50.7280 C   0  0  0  0  0  0  0  0  0  0  0  0
   39.8310   28.2500   50.1010 C   0  0  0  0  0  0  0  0  0  0  0  0
   39.0680   27.3200   50.7860 C   0  0  0  0  0  0  0  0  0  0  0  0
   38.6330   27.5740   52.1250 C   0  0  0  0  0  0  0  0  0  0  0  0
   38.9840   28.7460   52.6860 C   0  0  0  0  0  0  0  0  0  0  0  0
   39.1410   31.2630   55.0290 C   0  0  0  0  0  0  0  0  0  0  0  0
   38.8770   31.6490   56.2640 N   0  0  0  0  0  0  0  0  0  0  0  0
   39.3760   33.0570   56.6960 C   0  0  0  0  0  0  0  0  0  0  0  0
   36.0091   34.1182   62.6672 H   0  0  0  0  0  0  0  0  0  0  0  0
   35.0985   34.5565   61.1821 H   0  0  0  0  0  0  0  0  0  0  0  0
   36.1799   33.1222   61.1821 H   0  0  0  0  0  0  0  0  0  0  0  0
   37.7523   34.8947   62.0618 H   0  0  0  0  0  0  0  0  0  0  0  0
   39.6958   38.5754   61.7587 H   0  0  0  0  0  0  0  0  0  0  0  0
   38.9528   37.6299   63.1284 H   0  0  0  0  0  0  0  0  0  0  0  0
   40.9670   36.2420   62.8650 H   0  0  0  0  0  0  0  0  0  0  0  0
   39.6781   33.3266   59.3676 H   0  0  0  0  0  0  0  0  0  0  0  0
   39.3698   31.1971   58.9256 H   0  0  0  0  0  0  0  0  0  0  0  0
   37.8861   30.4425   60.6124 H   0  0  0  0  0  0  0  0  0  0  0  0
   36.6768   30.0434   59.3455 H   0  0  0  0  0  0  0  0  0  0  0  0
   38.2790   29.2311   59.3455 H   0  0  0  0  0  0  0  0  0  0  0  0
   37.0773   31.6663   56.9769 H   0  0  0  0  0  0  0  0  0  0  0  0
   40.5307   28.4193   55.9001 H   0  0  0  0  0  0  0  0  0  0  0  0
   40.0011   29.4854   57.3941 H   0  0  0  0  0  0  0  0  0  0  0  0
   41.5400   27.7508   57.8778 H   0  0  0  0  0  0  0  0  0  0  0  0
   39.8110   27.7365   58.6680 H   0  0  0  0  0  0  0  0  0  0  0  0
   41.2206   25.6730   57.1504 H   0  0  0  0  0  0  0  0  0  0  0  0
   40.1771   25.5569   58.5547 H   0  0  0  0  0  0  0  0  0  0  0  0
   39.4371   25.9970   55.5940 H   0  0  0  0  0  0  0  0  0  0  0  0
   38.5596   25.0341   56.8800 H   0  0  0  0  0  0  0  0  0  0  0  0
   37.1565   26.7750   56.2250 H   0  0  0  0  0  0  0  0  0  0  0  0
   37.9515   27.1724   57.8851 H   0  0  0  0  0  0  0  0  0  0  0  0
   37.6714   27.6427   54.5391 H   0  0  0  0  0  0  0  0  0  0  0  0
   36.9392   29.3001   54.9563 H   0  0  0  0  0  0  0  0  0  0  0  0
   40.3288   31.7271   52.5606 H   0  0  0  0  0  0  0  0  0  0  0  0
   40.7549   30.3053   50.2103 H   0  0  0  0  0  0  0  0  0  0  0  0
   40.1931   28.0243   49.0871 H   0  0  0  0  0  0  0  0  0  0  0  0
   38.7930   26.3748   50.2951 H   0  0  0  0  0  0  0  0  0  0  0  0
   38.0321   26.8365   52.6773 H   0  0  0  0  0  0  0  0  0  0  0  0
   40.2204   31.4677   55.0827 H   0  0  0  0  0  0  0  0  0  0  0  0
   38.0672   31.3779   54.8197 H   0  0  0  0  0  0  0  0  0  0  0  0
   39.3974   33.1174   57.7941 H   0  0  0  0  0  0  0  0  0  0  0  0
   40.3883   33.2248   56.2997 H   0  0  0  0  0  0  0  0  0  0  0  0
   38.6952   33.8248   56.2997 H   0  0  0  0  0  0  0  0  0  0  0  0
  1  2  1  0
  2  3  1  0
  3  4  2  0
  3  5  1  0
  5  6  1  0
  6  7  1  0
  5  8  1  0
  8  9  2  0
  8 10  1  0
 10 11  2  3
 11 12  1  0
 12 13  1  0
 13 14  1  0
 13 15  1  0
 15 16  1  0
 16 17  1  0
 17 18  1  0
 18 19  1  0
 19 20  1  0
 20 21  1  0
 21 22  1  0
 17 23  1  0
 23 24  1  0
 24 25  1  0
 25 26  2  0
 26 27  1  0
 27 28  2  0
 28 29  1  0
 29 30  2  0
 30 31  1  0
 31 32  2  0
 25 33  1  0
 33 34  1  0
 34 35  1  0
 10  2  1  0
 34 15  1  0
 22 17  1  0
 32 24  1  0
 32 27  1  0
  1 36  1  0
  1 37  1  0
  1 38  1  0
  2 39  1  6
  6 40  1  0
  6 41  1  0
  7 42  1  0
 11 43  1  0
 13 44  1  6
 14 45  1  0
 14 46  1  0
 14 47  1  0
 15 48  1  1
 18 49  1  0
 18 50  1  0
 19 51  1  0
 19 52  1  0
 20 53  1  0
 20 54  1  0
 21 55  1  0
 21 56  1  0
 22 57  1  0
 22 58  1  0
 23 59  1  0
 23 60  1  0
 26 61  1  0
 28 62  1  0
 29 63  1  0
 30 64  1  0
 31 65  1  0
 33 66  1  0
 33 67  1  0
 35 68  1  0
 35 69  1  0
 35 70  1  0
M  END
>  <docking_score>  (27) 
-12.274

>  <plif_similarity>  (27) 
0.444

$$$$
DiffSBDD_42
     RDKit          3D

 90 93  0  0  0  0  0  0  0  0999 V2000
   36.3370   37.2450   63.0310 C   0  0  0  0  0  0  0  0  0  0  0  0
   37.2350   37.4270   61.8460 C   0  0  0  0  0  0  0  0  0  0  0  0
   36.9430   36.5250   60.6290 C   0  0  0  0  0  0  0  0  0  0  0  0
   38.0020   35.4670   60.3950 C   0  0  0  0  0  0  0  0  0  0  0  0
   39.2040   35.5640   61.1560 C   0  0  0  0  0  0  0  0  0  0  0  0
   40.1220   34.4850   61.2060 C   0  0  0  0  0  0  0  0  0  0  0  0
   39.8550   33.3130   60.5040 C   0  0  0  0  0  0  0  0  0  0  0  0
   38.6910   33.1260   59.7450 C   0  0  0  0  0  0  0  0  0  0  0  0
   38.3230   31.4710   59.4370 C   0  0  0  0  0  0  0  0  0  0  0  0
   37.8870   31.6900   57.9810 C   0  0  0  0  0  0  0  0  0  0  0  0
   38.5600   30.8350   56.9420 C   0  0  2  0  0  0  0  0  0  0  0  0
   39.0690   32.1680   55.9010 C   0  0  0  0  0  0  0  0  0  0  0  0
   39.2830   31.2710   55.0200 C   0  0  0  0  0  0  0  0  0  0  0  0
   39.5630   30.7820   53.8060 C   0  0  0  0  0  0  0  0  0  0  0  0
   39.4820   30.0320   53.2270 C   0  0  0  0  0  0  0  0  0  0  0  0
   40.0550   30.4420   51.7800 C   0  0  0  0  0  0  0  0  0  0  0  0
   39.5770   29.4320   50.6920 C   0  0  1  0  0  0  0  0  0  0  0  0
   40.2570   29.7470   49.5340 O   0  0  0  0  0  0  0  0  0  0  0  0
   39.7950   28.0390   51.1920 C   0  0  0  0  0  0  0  0  0  0  0  0
   38.6430   27.1420   50.9900 O   0  0  0  0  0  0  0  0  0  0  0  0
   37.7100   29.5900   57.0190 N   0  0  0  0  0  0  0  0  0  0  0  0
   38.0960   28.6230   57.4180 C   0  0  1  0  0  0  0  0  0  0  0  0
   38.1390   28.1090   58.8810 C   0  0  0  0  0  0  0  0  0  0  0  0
   38.7000   26.4120   58.6420 C   0  0  1  0  0  0  0  0  0  0  0  0
   37.9030   26.1520   57.2190 C   0  0  2  0  0  0  0  0  0  0  0  0
   38.3570   25.4490   55.8270 C   0  0  0  0  0  0  0  0  0  0  0  0
   39.4930   26.4090   55.4650 C   0  0  1  0  0  0  0  0  0  0  0  0
   40.2000   25.8590   54.1840 C   0  0  0  0  0  0  0  0  0  0  0  0
   38.6160   27.6320   55.2010 C   0  0  0  0  0  0  0  0  0  0  0  0
   37.7770   27.5210   56.5090 C   0  0  2  0  0  0  0  0  0  0  0  0
   40.6500   26.8320   56.5540 O   0  0  0  0  0  0  0  0  0  0  0  0
   40.0610   26.7490   58.0130 C   0  0  2  0  0  0  0  0  0  0  0  0
   41.3150   27.2280   58.7840 C   0  0  0  0  0  0  0  0  0  0  0  0
   40.9670   28.3820   59.7430 C   0  0  0  0  0  0  0  0  0  0  0  0
   42.3170   27.9470   57.6890 C   0  0  0  0  0  0  0  0  0  0  0  0
   37.8040   34.3530   59.7070 C   0  0  0  0  0  0  0  0  0  0  0  0
   36.9213   37.3634   63.9554 H   0  0  0  0  0  0  0  0  0  0  0  0
   35.5367   37.9992   63.0039 H   0  0  0  0  0  0  0  0  0  0  0  0
   35.8935   36.2387   63.0039 H   0  0  0  0  0  0  0  0  0  0  0  0
   37.1498   38.4732   61.5172 H   0  0  0  0  0  0  0  0  0  0  0  0
   38.2403   37.1427   62.1903 H   0  0  0  0  0  0  0  0  0  0  0  0
   35.9781   36.0224   60.7913 H   0  0  0  0  0  0  0  0  0  0  0  0
   36.9304   37.1733   59.7405 H   0  0  0  0  0  0  0  0  0  0  0  0
   39.4217   36.4881   61.7115 H   0  0  0  0  0  0  0  0  0  0  0  0
   41.0443   34.5738   61.7989 H   0  0  0  0  0  0  0  0  0  0  0  0
   40.5907   32.4964   60.5467 H   0  0  0  0  0  0  0  0  0  0  0  0
   39.2007   30.8139   59.5264 H   0  0  0  0  0  0  0  0  0  0  0  0
   37.6097   30.9751   60.1118 H   0  0  0  0  0  0  0  0  0  0  0  0
   36.8057   31.4966   57.9234 H   0  0  0  0  0  0  0  0  0  0  0  0
   38.1802   32.7229   57.7419 H   0  0  0  0  0  0  0  0  0  0  0  0
   39.4522   30.2196   56.7540 H   0  0  0  0  0  0  0  0  0  0  0  0
   38.2782   32.8896   55.6483 H   0  0  0  0  0  0  0  0  0  0  0  0
   39.8338   32.8988   56.2027 H   0  0  0  0  0  0  0  0  0  0  0  0
   40.0943   30.7564   55.5556 H   0  0  0  0  0  0  0  0  0  0  0  0
   38.2566   31.4421   54.6634 H   0  0  0  0  0  0  0  0  0  0  0  0
   39.0983   31.5566   53.1783 H   0  0  0  0  0  0  0  0  0  0  0  0
   40.5285   30.4037   54.1730 H   0  0  0  0  0  0  0  0  0  0  0  0
   40.0605   29.1876   53.6299 H   0  0  0  0  0  0  0  0  0  0  0  0
   38.4272   29.7312   53.1441 H   0  0  0  0  0  0  0  0  0  0  0  0
   39.6954   31.4488   51.5211 H   0  0  0  0  0  0  0  0  0  0  0  0
   41.1543   30.4277   51.8176 H   0  0  0  0  0  0  0  0  0  0  0  0
   38.5008   29.4948   50.4730 H   0  0  0  0  0  0  0  0  0  0  0  0
   39.6490   30.2220   48.9140 H   0  0  0  0  0  0  0  0  0  0  0  0
   40.6612   27.6137   50.6640 H   0  0  0  0  0  0  0  0  0  0  0  0
   39.9546   28.1121   52.2779 H   0  0  0  0  0  0  0  0  0  0  0  0
   38.3530   26.7750   51.8630 H   0  0  0  0  0  0  0  0  0  0  0  0
   37.3980   29.3970   56.0570 H   0  0  0  0  0  0  0  0  0  0  0  0
   37.0190   29.8520   57.7360 H   0  0  0  0  0  0  0  0  0  0  0  0
   39.1138   29.0347   57.4858 H   0  0  0  0  0  0  0  0  0  0  0  0
   38.8502   28.6863   59.4900 H   0  0  0  0  0  0  0  0  0  0  0  0
   37.1828   28.1963   59.4177 H   0  0  0  0  0  0  0  0  0  0  0  0
   38.6334   25.6862   59.4658 H   0  0  0  0  0  0  0  0  0  0  0  0
   37.1692   25.4950   57.7088 H   0  0  0  0  0  0  0  0  0  0  0  0
   38.7134   24.4192   55.9770 H   0  0  0  0  0  0  0  0  0  0  0  0
   37.5694   25.3250   55.0692 H   0  0  0  0  0  0  0  0  0  0  0  0
   41.0367   25.2081   54.4778 H   0  0  0  0  0  0  0  0  0  0  0  0
   39.4790   25.2820   53.5864 H   0  0  0  0  0  0  0  0  0  0  0  0
   40.5819   26.6998   53.5864 H   0  0  0  0  0  0  0  0  0  0  0  0
   39.1951   28.5656   55.1462 H   0  0  0  0  0  0  0  0  0  0  0  0
   38.0616   27.6546   54.2512 H   0  0  0  0  0  0  0  0  0  0  0  0
   36.7222   27.5973   56.2065 H   0  0  0  0  0  0  0  0  0  0  0  0
   39.7134   27.7895   57.9319 H   0  0  0  0  0  0  0  0  0  0  0  0
   41.7380   26.3634   59.3165 H   0  0  0  0  0  0  0  0  0  0  0  0
   41.0706   28.0385   60.7828 H   0  0  0  0  0  0  0  0  0  0  0  0
   41.6508   29.2251   59.5655 H   0  0  0  0  0  0  0  0  0  0  0  0
   39.9310   28.7065   59.5655 H   0  0  0  0  0  0  0  0  0  0  0  0
   43.0992   28.5083   58.2211 H   0  0  0  0  0  0  0  0  0  0  0  0
   42.7837   27.1764   57.0578 H   0  0  0  0  0  0  0  0  0  0  0  0
   41.7364   28.6359   57.0578 H   0  0  0  0  0  0  0  0  0  0  0  0
   36.9206   34.3156   59.0526 H   0  0  0  0  0  0  0  0  0  0  0  0
  1  2  1  0
  2  3  1  0
  3  4  1  0
  4  5  1  0
  5  6  2  0
  6  7  1  0
  7  8  2  0
  8  9  1  0
  9 10  1  0
 10 11  1  0
 11 12  1  0
 12 13  1  0
 13 14  1  0
 14 15  1  0
 15 16  1  0
 16 17  1  0
 17 18  1  0
 17 19  1  0
 19 20  1  0
 11 21  1  0
 21 22  1  0
 22 23  1  0
 23 24  1  0
 24 25  1  0
 25 26  1  0
 26 27  1  0
 27 28  1  6
 27 29  1  0
 29 30  1  0
 27 31  1  0
 31 32  1  0
 32 33  1  0
 33 34  1  0
 33 35  1  0
  8 36  1  0
 36  4  2  0
 30 22  1  0
 32 24  1  0
 30 25  1  0
  1 37  1  0
  1 38  1  0
  1 39  1  0
  2 40  1  0
  2 41  1  0
  3 42  1  0
  3 43  1  0
  5 44  1  0
  6 45  1  0
  7 46  1  0
  9 47  1  0
  9 48  1  0
 10 49  1  0
 10 50  1  0
 11 51  1  1
 12 52  1  0
 12 53  1  0
 13 54  1  0
 13 55  1  0
 14 56  1  0
 14 57  1  0
 15 58  1  0
 15 59  1  0
 16 60  1  0
 16 61  1  0
 17 62  1  6
 18 63  1  0
 19 64  1  0
 19 65  1  0
 20 66  1  0
 21 67  1  0
 21 68  1  0
 22 69  1  6
 23 70  1  0
 23 71  1  0
 24 72  1  1
 25 73  1  1
 26 74  1  0
 26 75  1  0
 28 76  1  0
 28 77  1  0
 28 78  1  0
 29 79  1  0
 29 80  1  0
 30 81  1  6
 32 82  1  1
 33 83  1  0
 34 84  1  0
 34 85  1  0
 34 86  1  0
 35 87  1  0
 35 88  1  0
 35 89  1  0
 36 90  1  0
M  CHG  1  21   1
M  END
>  <docking_score>  (28) 
-10.531

>  <plif_similarity>  (28) 
0.556

$$$$
DiffSBDD_43
     RDKit          3D

 65 67  0  0  0  0  0  0  0  0999 V2000
   38.0360   32.3480   55.1300 C   0  0  0  0  0  0  0  0  0  0  0  0
   37.7320   30.8060   54.7920 C   0  0  0  0  0  0  0  0  0  0  0  0
   39.0760   30.0700   54.4530 C   0  0  2  0  0  0  0  0  0  0  0  0
   40.0060   29.7600   55.6700 C   0  0  0  0  0  0  0  0  0  0  0  0
   39.2850   29.2560   57.0100 C   0  0  1  0  0  0  0  0  0  0  0  0
   39.0440   30.0970   58.2970 C   0  0  0  0  0  0  0  0  0  0  0  0
   39.7490   30.0300   59.2330 O   0  0  0  0  0  0  0  0  0  0  0  0
   37.8550   30.9000   58.3430 N   0  0  0  0  0  0  0  0  0  0  0  0
   37.4430   32.1570   59.1880 C   0  0  0  0  0  0  0  0  0  0  0  0
   36.5440   31.7550   60.0970 C   0  0  0  0  0  0  0  0  0  0  0  0
   35.9640   32.6630   61.0330 C   0  0  0  0  0  0  0  0  0  0  0  0
   34.9660   32.2580   61.7910 O   0  0  0  0  0  0  0  0  0  0  0  0
   36.5030   33.9460   61.1720 C   0  0  0  0  0  0  0  0  0  0  0  0
   37.3840   34.3820   60.2740 C   0  0  0  0  0  0  0  0  0  0  0  0
   37.9210   35.7960   60.4150 C   0  0  1  0  0  0  0  0  0  0  0  0
   38.0050   37.3050   60.8680 C   0  0  0  0  0  0  0  0  0  0  0  0
   39.0040   35.8780   61.0780 C   0  0  0  0  0  0  0  0  0  0  0  0
   40.6200   35.2900   61.1680 C   0  0  0  0  0  0  0  0  0  0  0  0
   37.8760   33.5980   59.1800 C   0  0  0  0  0  0  0  0  0  0  0  0
   38.9340   27.8120   57.0510 C   0  0  0  0  0  0  0  0  0  0  0  0
   37.6070   27.2220   56.8500 C   0  0  0  0  0  0  0  0  0  0  0  0
   37.3900   25.7990   56.9280 C   0  0  0  0  0  0  0  0  0  0  0  0
   38.4060   24.9860   57.3640 C   0  0  0  0  0  0  0  0  0  0  0  0
   38.1930   23.7110   57.6830 O   0  0  0  0  0  0  0  0  0  0  0  0
   39.7190   25.4780   57.3860 C   0  0  0  0  0  0  0  0  0  0  0  0
   40.0030   26.8960   57.3450 C   0  0  0  0  0  0  0  0  0  0  0  0
   39.4230   29.5810   53.0870 C   0  0  0  0  0  0  0  0  0  0  0  0
   40.1350   30.4350   52.1570 C   0  0  0  0  0  0  0  0  0  0  0  0
   40.3110   30.0030   50.8770 C   0  0  0  0  0  0  0  0  0  0  0  0
   40.8720   30.7970   49.9960 F   0  0  0  0  0  0  0  0  0  0  0  0
   39.7340   28.7940   50.3690 C   0  0  0  0  0  0  0  0  0  0  0  0
   39.2070   27.8600   51.3380 C   0  0  0  0  0  0  0  0  0  0  0  0
   39.2260   28.2300   52.6970 C   0  0  0  0  0  0  0  0  0  0  0  0
   39.2090   26.9750   53.7810 Cl  0  0  0  0  0  0  0  0  0  0  0  0
   38.0632   32.4858   56.2210 H   0  0  0  0  0  0  0  0  0  0  0  0
   39.0076   32.6329   54.7001 H   0  0  0  0  0  0  0  0  0  0  0  0
   37.2452   32.9804   54.7001 H   0  0  0  0  0  0  0  0  0  0  0  0
   37.2604   30.3260   55.6622 H   0  0  0  0  0  0  0  0  0  0  0  0
   37.0535   30.7468   53.9282 H   0  0  0  0  0  0  0  0  0  0  0  0
   38.5776   29.0985   54.5864 H   0  0  0  0  0  0  0  0  0  0  0  0
   40.7156   28.9794   55.3582 H   0  0  0  0  0  0  0  0  0  0  0  0
   40.4715   30.7212   55.9334 H   0  0  0  0  0  0  0  0  0  0  0  0
   40.2557   28.9253   57.4079 H   0  0  0  0  0  0  0  0  0  0  0  0
   37.1240   30.5880   57.6880 H   0  0  0  0  0  0  0  0  0  0  0  0
   36.2451   30.6967   60.1224 H   0  0  0  0  0  0  0  0  0  0  0  0
   34.2990   32.9100   62.1210 H   0  0  0  0  0  0  0  0  0  0  0  0
   36.2025   34.5875   62.0135 H   0  0  0  0  0  0  0  0  0  0  0  0
   37.2532   35.6868   59.5478 H   0  0  0  0  0  0  0  0  0  0  0  0
   38.0080   37.3584   61.9667 H   0  0  0  0  0  0  0  0  0  0  0  0
   38.9296   37.7544   60.4766 H   0  0  0  0  0  0  0  0  0  0  0  0
   37.1360   37.8543   60.4766 H   0  0  0  0  0  0  0  0  0  0  0  0
   39.1892   36.9609   61.0232 H   0  0  0  0  0  0  0  0  0  0  0  0
   38.6601   35.0999   61.7754 H   0  0  0  0  0  0  0  0  0  0  0  0
   40.9132   35.1833   62.2228 H   0  0  0  0  0  0  0  0  0  0  0  0
   40.6825   34.3115   60.6693 H   0  0  0  0  0  0  0  0  0  0  0  0
   41.2967   35.9995   60.6693 H   0  0  0  0  0  0  0  0  0  0  0  0
   38.5212   34.0177   58.3941 H   0  0  0  0  0  0  0  0  0  0  0  0
   36.7544   27.8826   56.6340 H   0  0  0  0  0  0  0  0  0  0  0  0
   36.4192   25.3689   56.6408 H   0  0  0  0  0  0  0  0  0  0  0  0
   37.4350   23.4680   58.2720 H   0  0  0  0  0  0  0  0  0  0  0  0
   40.5561   24.7661   57.4358 H   0  0  0  0  0  0  0  0  0  0  0  0
   41.0206   27.2677   57.5357 H   0  0  0  0  0  0  0  0  0  0  0  0
   40.5253   31.4120   52.4782 H   0  0  0  0  0  0  0  0  0  0  0  0
   39.6939   28.5859   49.2896 H   0  0  0  0  0  0  0  0  0  0  0  0
   38.8022   26.8870   51.0229 H   0  0  0  0  0  0  0  0  0  0  0  0
  1  2  1  0
  2  3  1  0
  3  4  1  0
  4  5  1  0
  5  6  1  0
  6  7  2  0
  6  8  1  0
  8  9  1  0
  9 10  1  0
 10 11  2  0
 11 12  1  0
 11 13  1  0
 13 14  2  0
 14 15  1  0
 15 16  1  0
 15 17  1  0
 17 18  1  0
 14 19  1  0
  5 20  1  0
 20 21  1  0
 21 22  2  0
 22 23  1  0
 23 24  1  0
 23 25  2  0
 25 26  1  0
  3 27  1  0
 27 28  1  0
 28 29  2  0
 29 30  1  0
 29 31  1  0
 31 32  2  0
 32 33  1  0
 33 34  1  0
 19  9  2  0
 26 20  2  0
 33 27  2  0
  1 35  1  0
  1 36  1  0
  1 37  1  0
  2 38  1  0
  2 39  1  0
  3 40  1  6
  4 41  1  0
  4 42  1  0
  5 43  1  6
  8 44  1  0
 10 45  1  0
 12 46  1  0
 13 47  1  0
 15 48  1  6
 16 49  1  0
 16 50  1  0
 16 51  1  0
 17 52  1  0
 17 53  1  0
 18 54  1  0
 18 55  1  0
 18 56  1  0
 19 57  1  0
 21 58  1  0
 22 59  1  0
 24 60  1  0
 25 61  1  0
 26 62  1  0
 28 63  1  0
 31 64  1  0
 32 65  1  0
M  END
>  <docking_score>  (29) 
-11.093

>  <plif_similarity>  (29) 
0.556

$$$$
DiffSBDD_44
     RDKit          3D

 51 53  0  0  0  0  0  0  0  0999 V2000
   37.8280   26.6860   55.3600 C   0  0  0  0  0  0  0  0  0  0  0  0
   37.7790   27.3890   54.2420 C   0  0  0  0  0  0  0  0  0  0  0  0
   38.5180   28.6240   54.0580 C   0  0  1  0  0  0  0  0  0  0  0  0
   38.9200   29.3980   55.0490 N   0  0  0  0  0  0  0  0  0  0  0  0
   38.6330   30.4870   55.8450 C   0  0  0  0  0  0  0  0  0  0  0  0
   38.5290   30.3900   57.3030 C   0  0  0  0  0  0  0  0  0  0  0  0
   38.4110   31.2670   58.3700 C   0  0  0  0  0  0  0  0  0  0  0  0
   38.3120   32.8850   58.4760 C   0  0  0  0  0  0  0  0  0  0  0  0
   38.2260   33.9220   59.5740 C   0  0  0  0  0  0  0  0  0  0  0  0
   37.0180   34.5140   59.9900 C   0  0  0  0  0  0  0  0  0  0  0  0
   36.9600   35.5080   61.0650 C   0  0  0  0  0  0  0  0  0  0  0  0
   38.1720   35.9210   61.6820 C   0  0  0  0  0  0  0  0  0  0  0  0
   39.3740   35.2130   61.4490 C   0  0  0  0  0  0  0  0  0  0  0  0
   40.6080   35.5460   62.3750 C   0  0  0  0  0  0  0  0  0  0  0  0
   41.3580   34.6240   62.7450 N   0  0  0  0  0  0  0  0  0  0  0  0
   40.9150   36.8050   62.5700 O   0  0  0  0  0  0  0  0  0  0  0  0
   39.4460   34.2800   60.3970 C   0  0  0  0  0  0  0  0  0  0  0  0
   37.9870   33.4640   57.1750 N   0  0  0  0  0  0  0  0  0  0  0  0
   38.3030   33.0990   55.9000 C   0  0  0  0  0  0  0  0  0  0  0  0
   38.6500   31.8370   55.3550 C   0  0  0  0  0  0  0  0  0  0  0  0
   39.1750   28.9760   52.6770 C   0  0  0  0  0  0  0  0  0  0  0  0
   39.0260   28.1650   51.5850 C   0  0  0  0  0  0  0  0  0  0  0  0
   39.7730   28.7550   50.5800 C   0  0  0  0  0  0  0  0  0  0  0  0
   40.2750   30.0310   51.0350 C   0  0  0  0  0  0  0  0  0  0  0  0
   39.7900   30.2320   52.3190 C   0  0  0  0  0  0  0  0  0  0  0  0
   37.2487   25.7553   55.4503 H   0  0  0  0  0  0  0  0  0  0  0  0
   38.4481   27.0316   56.2003 H   0  0  0  0  0  0  0  0  0  0  0  0
   37.1516   27.0224   53.4162 H   0  0  0  0  0  0  0  0  0  0  0  0
   37.4374   28.8290   54.0707 H   0  0  0  0  0  0  0  0  0  0  0  0
   39.8340   29.0360   55.3570 H   0  0  0  0  0  0  0  0  0  0  0  0
   38.5502   29.3434   57.6408 H   0  0  0  0  0  0  0  0  0  0  0  0
   37.4968   30.9250   58.8771 H   0  0  0  0  0  0  0  0  0  0  0  0
   39.4621   31.1987   58.6871 H   0  0  0  0  0  0  0  0  0  0  0  0
   36.0837   34.2195   59.4897 H   0  0  0  0  0  0  0  0  0  0  0  0
   35.9958   35.9270   61.3887 H   0  0  0  0  0  0  0  0  0  0  0  0
   38.1752   36.7981   62.3459 H   0  0  0  0  0  0  0  0  0  0  0  0
   42.1670   34.8290   63.3500 H   0  0  0  0  0  0  0  0  0  0  0  0
   41.1690   33.6560   62.4470 H   0  0  0  0  0  0  0  0  0  0  0  0
   40.4092   33.8007   60.1679 H   0  0  0  0  0  0  0  0  0  0  0  0
   37.4070   34.3130   57.2320 H   0  0  0  0  0  0  0  0  0  0  0  0
   38.2858   33.9227   55.1711 H   0  0  0  0  0  0  0  0  0  0  0  0
   39.0160   31.9080   54.3201 H   0  0  0  0  0  0  0  0  0  0  0  0
   39.7286   28.6866   53.5824 H   0  0  0  0  0  0  0  0  0  0  0  0
   39.4038   27.1550   51.8021 H   0  0  0  0  0  0  0  0  0  0  0  0
   37.9695   28.0577   51.2981 H   0  0  0  0  0  0  0  0  0  0  0  0
   40.6181   28.1008   50.3198 H   0  0  0  0  0  0  0  0  0  0  0  0
   39.1386   28.9067   49.6943 H   0  0  0  0  0  0  0  0  0  0  0  0
   41.3749   30.0205   51.0456 H   0  0  0  0  0  0  0  0  0  0  0  0
   39.9477   30.8393   50.3645 H   0  0  0  0  0  0  0  0  0  0  0  0
   40.6106   30.4736   53.0106 H   0  0  0  0  0  0  0  0  0  0  0  0
   39.0823   31.0726   52.3707 H   0  0  0  0  0  0  0  0  0  0  0  0
  1  2  2  0
  2  3  1  0
  3  4  1  0
  4  5  1  0
  5  6  2  0
  6  7  1  0
  7  8  1  0
  8  9  1  0
  9 10  2  0
 10 11  1  0
 11 12  2  0
 12 13  1  0
 13 14  1  0
 14 15  1  0
 14 16  2  0
 13 17  2  0
  8 18  2  0
 18 19  1  0
 19 20  2  0
  3 21  1  0
 21 22  1  0
 22 23  1  0
 23 24  1  0
 24 25  1  0
 20  5  1  0
 25 21  1  0
 17  9  1  0
  1 26  1  0
  1 27  1  0
  2 28  1  0
  3 29  1  6
  4 30  1  0
  6 31  1  0
  7 32  1  0
  7 33  1  0
 10 34  1  0
 11 35  1  0
 12 36  1  0
 15 37  1  0
 15 38  1  0
 17 39  1  0
 18 40  1  0
 19 41  1  0
 20 42  1  0
 21 43  1  0
 22 44  1  0
 22 45  1  0
 23 46  1  0
 23 47  1  0
 24 48  1  0
 24 49  1  0
 25 50  1  0
 25 51  1  0
M  CHG  1  18   1
M  END
>  <docking_score>  (30) 
-10.287

>  <plif_similarity>  (30) 
0.333

$$$$
DiffSBDD_45
     RDKit          3D

 72 76  0  0  0  0  0  0  0  0999 V2000
   36.8950   38.1890   61.2930 O   0  0  0  0  0  0  0  0  0  0  0  0
   37.8960   38.5910   61.1800 C   0  0  0  0  0  0  0  0  0  0  0  0
   38.1280   39.8640   60.4720 O   0  0  0  0  0  0  0  0  0  0  0  0
   38.7530   37.8640   61.7160 C   0  0  0  0  0  0  0  0  0  0  0  0
   38.6110   36.4900   61.0170 C   0  0  0  0  0  0  0  0  0  0  0  0
   40.1330   35.6610   61.5000 C   0  0  2  0  0  0  0  0  0  0  0  0
   39.3240   34.2820   60.8420 C   0  0  0  0  0  0  0  0  0  0  0  0
   39.6740   33.0450   61.6440 C   0  0  1  0  0  0  0  0  0  0  0  0
   39.1310   31.4700   61.1510 S   0  0  0  0  0  0  0  0  0  0  0  0
   38.4900   31.0620   62.6530 O   0  0  0  0  0  0  0  0  0  0  0  0
   40.5360   30.7170   60.7810 O   0  0  0  0  0  0  0  0  0  0  0  0
   37.5230   31.5280   60.1330 C   0  0  0  0  0  0  0  0  0  0  0  0
   37.6770   30.6880   59.0580 C   0  0  0  0  0  0  0  0  0  0  0  0
   37.5760   29.4800   59.3750 O   0  0  0  0  0  0  0  0  0  0  0  0
   38.3960   31.2040   57.8500 N   0  0  0  0  0  0  0  0  0  0  0  0
   38.4290   32.7300   57.7500 C   0  0  0  0  0  0  0  0  0  0  0  0
   37.8680   33.1930   56.4650 O   0  0  0  0  0  0  0  0  0  0  0  0
   39.0970   29.8340   57.3210 C   0  0  0  0  0  0  0  0  0  0  0  0
   38.2870   29.4250   56.0420 C   0  0  0  0  0  0  0  0  0  0  0  0
   39.2410   28.9930   55.0040 C   0  0  2  0  0  0  0  0  0  0  0  0
   39.1850   29.2530   53.5330 C   0  0  1  0  0  0  0  0  0  0  0  0
   39.4710   30.1970   52.5880 C   0  0  0  0  0  0  0  0  0  0  0  0
   39.9220   29.5980   51.2320 C   0  0  0  0  0  0  0  0  0  0  0  0
   39.8670   28.2630   51.0410 C   0  0  0  0  0  0  0  0  0  0  0  0
   39.7010   27.3810   52.3350 C   0  0  0  0  0  0  0  0  0  0  0  0
   39.0550   27.4750   53.1210 C   0  0  1  0  0  0  0  0  0  0  0  0
   38.5890   27.2400   54.6170 C   0  0  2  0  0  0  0  0  0  0  0  0
   37.4410   26.2390   54.6750 C   0  0  0  0  0  0  0  0  0  0  0  0
   37.6400   25.6620   56.0680 C   0  0  0  0  0  0  0  0  0  0  0  0
   36.9910   25.1300   55.1880 C   0  0  0  0  0  0  0  0  0  0  0  0
   40.6030   32.6850   61.8630 C   0  0  2  0  0  0  0  0  0  0  0  0
   41.6920   32.3800   63.5150 S   0  0  0  0  0  0  0  0  0  0  0  0
   41.2160   33.9050   63.0000 C   0  0  2  0  0  0  0  0  0  0  0  0
   40.6680   35.0070   62.7850 C   0  0  0  0  0  0  0  0  0  0  0  0
   39.7611   38.2750   61.5585 H   0  0  0  0  0  0  0  0  0  0  0  0
   38.6082   37.7897   62.8039 H   0  0  0  0  0  0  0  0  0  0  0  0
   37.7272   35.9461   61.3818 H   0  0  0  0  0  0  0  0  0  0  0  0
   38.4720   36.5601   59.9281 H   0  0  0  0  0  0  0  0  0  0  0  0
   40.9868   36.3346   61.3352 H   0  0  0  0  0  0  0  0  0  0  0  0
   38.2368   34.4451   60.8795 H   0  0  0  0  0  0  0  0  0  0  0  0
   39.6437   34.1390   59.7992 H   0  0  0  0  0  0  0  0  0  0  0  0
   39.1875   33.6321   62.4369 H   0  0  0  0  0  0  0  0  0  0  0  0
   36.6765   31.1938   60.7509 H   0  0  0  0  0  0  0  0  0  0  0  0
   37.3200   32.5543   59.7930 H   0  0  0  0  0  0  0  0  0  0  0  0
   37.8381   33.1565   58.5740 H   0  0  0  0  0  0  0  0  0  0  0  0
   39.4763   33.0607   57.8123 H   0  0  0  0  0  0  0  0  0  0  0  0
   38.5920   33.5700   55.9050 H   0  0  0  0  0  0  0  0  0  0  0  0
   40.1524   30.0135   57.0682 H   0  0  0  0  0  0  0  0  0  0  0  0
   39.0841   29.0437   58.0860 H   0  0  0  0  0  0  0  0  0  0  0  0
   37.6027   28.5986   56.2844 H   0  0  0  0  0  0  0  0  0  0  0  0
   37.6965   30.2795   55.6799 H   0  0  0  0  0  0  0  0  0  0  0  0
   40.1658   29.3995   55.4392 H   0  0  0  0  0  0  0  0  0  0  0  0
   38.7920   30.2694   53.3830 H   0  0  0  0  0  0  0  0  0  0  0  0
   38.5693   30.8036   52.4179 H   0  0  0  0  0  0  0  0  0  0  0  0
   40.3102   30.7953   52.9723 H   0  0  0  0  0  0  0  0  0  0  0  0
   39.2937   30.0579   50.4550 H   0  0  0  0  0  0  0  0  0  0  0  0
   40.9993   29.8180   51.1995 H   0  0  0  0  0  0  0  0  0  0  0  0
   39.0128   28.0535   50.3804 H   0  0  0  0  0  0  0  0  0  0  0  0
   40.8445   27.9857   50.6196 H   0  0  0  0  0  0  0  0  0  0  0  0
   39.5026   26.3714   51.9460 H   0  0  0  0  0  0  0  0  0  0  0  0
   40.6080   27.7218   52.8558 H   0  0  0  0  0  0  0  0  0  0  0  0
   38.5703   26.6087   52.6471 H   0  0  0  0  0  0  0  0  0  0  0  0
   38.7464   26.6924   55.5579 H   0  0  0  0  0  0  0  0  0  0  0  0
   37.0450   26.6614   53.7397 H   0  0  0  0  0  0  0  0  0  0  0  0
   38.6146   25.2532   56.3731 H   0  0  0  0  0  0  0  0  0  0  0  0
   37.4715   25.9891   57.1047 H   0  0  0  0  0  0  0  0  0  0  0  0
   37.3770   24.1870   54.7736 H   0  0  0  0  0  0  0  0  0  0  0  0
   35.9538   24.7658   55.2276 H   0  0  0  0  0  0  0  0  0  0  0  0
   40.6186   32.0485   60.9660 H   0  0  0  0  0  0  0  0  0  0  0  0
   41.7623   34.6841   63.5519 H   0  0  0  0  0  0  0  0  0  0  0  0
   39.7924   34.9933   63.4506 H   0  0  0  0  0  0  0  0  0  0  0  0
   41.5816   35.6149   62.8606 H   0  0  0  0  0  0  0  0  0  0  0  0
  1  2  2  0
  2  3  1  0
  2  4  1  0
  4  5  1  0
  5  6  1  0
  6  7  1  0
  7  8  1  0
  8  9  1  0
  9 10  2  0
  9 11  2  0
  9 12  1  0
 12 13  1  0
 13 14  2  0
 13 15  1  0
 15 16  1  0
 16 17  1  0
 15 18  1  0
 18 19  1  0
 19 20  1  0
 20 21  1  0
 21 22  1  0
 22 23  1  0
 23 24  1  0
 24 25  1  0
 25 26  1  0
 26 27  1  0
 27 28  1  0
 28 29  1  0
 29 30  1  0
  8 31  1  0
 31 32  1  0
 32 33  1  0
 33 34  1  0
 34  6  1  0
 27 20  1  0
 30 28  1  0
 33 31  1  0
 26 21  1  0
  4 35  1  0
  4 36  1  0
  5 37  1  0
  5 38  1  0
  6 39  1  6
  7 40  1  0
  7 41  1  0
  8 42  1  1
 12 43  1  0
 12 44  1  0
 16 45  1  0
 16 46  1  0
 17 47  1  0
 18 48  1  0
 18 49  1  0
 19 50  1  0
 19 51  1  0
 20 52  1  1
 21 53  1  1
 22 54  1  0
 22 55  1  0
 23 56  1  0
 23 57  1  0
 24 58  1  0
 24 59  1  0
 25 60  1  0
 25 61  1  0
 26 62  1  6
 27 63  1  1
 28 64  1  0
 29 65  1  0
 29 66  1  0
 30 67  1  0
 30 68  1  0
 31 69  1  6
 33 70  1  6
 34 71  1  0
 34 72  1  0
M  CHG  1   3  -1
M  END
>  <docking_score>  (31) 
-10.69

>  <plif_similarity>  (31) 
0.556

$$$$
DiffSBDD_46
     RDKit          3D

 54 56  0  0  0  0  0  0  0  0999 V2000
   40.5570   30.3030   50.7060 C   0  0  0  0  0  0  0  0  0  0  0  0
   39.9340   29.8160   51.3650 C   0  0  0  0  0  0  0  0  0  0  0  0
   39.6470   28.2840   51.3720 C   0  0  0  0  0  0  0  0  0  0  0  0
   38.4830   28.1400   52.2000 C   0  0  0  0  0  0  0  0  0  0  0  0
   38.8850   28.2370   53.6170 N   0  0  0  0  0  0  0  0  0  0  0  0
   37.8210   28.4640   54.4940 C   0  0  0  0  0  0  0  0  0  0  0  0
   39.0490   28.4650   54.9640 C   0  0  1  0  0  0  0  0  0  0  0  0
   39.4970   27.0980   55.7760 C   0  0  2  0  0  0  0  0  0  0  0  0
   38.5790   26.0060   55.7660 O   0  0  0  0  0  0  0  0  0  0  0  0
   39.0010   25.2580   56.8490 C   0  0  0  0  0  0  0  0  0  0  0  0
   38.1230   24.0390   57.2570 C   0  0  0  0  0  0  0  0  0  0  0  0
   39.8420   25.7780   57.6350 N   0  0  0  0  0  0  0  0  0  0  0  0
   40.2920   26.9450   56.9730 C   0  0  1  0  0  0  0  0  0  0  0  0
   41.4030   27.8590   57.7420 S   0  0  0  0  0  0  0  0  0  0  0  0
   40.2850   28.6220   58.6820 C   0  0  0  0  0  0  0  0  0  0  0  0
   39.2660   28.6410   59.6480 C   0  0  0  0  0  0  0  0  0  0  0  0
   37.9930   29.3630   59.0380 C   0  0  0  0  0  0  0  0  0  0  0  0
   37.7910   30.8500   59.2650 C   0  0  0  0  0  0  0  0  0  0  0  0
   38.4000   31.8380   58.3230 C   0  0  0  0  0  0  0  0  0  0  0  0
   38.1290   33.2440   58.4140 C   0  0  0  0  0  0  0  0  0  0  0  0
   37.1770   33.7560   59.3290 C   0  0  0  0  0  0  0  0  0  0  0  0
   36.9900   35.2590   59.2780 O   0  0  0  0  0  0  0  0  0  0  0  0
   37.7830   35.9510   60.2580 C   0  0  0  0  0  0  0  0  0  0  0  0
   36.5300   32.8590   60.3880 C   0  0  0  0  0  0  0  0  0  0  0  0
   35.7350   33.3050   61.2210 O   0  0  0  0  0  0  0  0  0  0  0  0
   36.8800   31.3330   60.2730 C   0  0  0  0  0  0  0  0  0  0  0  0
   40.6953   31.3916   50.7821 H   0  0  0  0  0  0  0  0  0  0  0  0
   41.0845   29.7348   49.9257 H   0  0  0  0  0  0  0  0  0  0  0  0
   39.4290   30.4274   52.1274 H   0  0  0  0  0  0  0  0  0  0  0  0
   39.4466   27.9213   50.3530 H   0  0  0  0  0  0  0  0  0  0  0  0
   40.5010   27.7002   51.7459 H   0  0  0  0  0  0  0  0  0  0  0  0
   37.7630   28.9379   51.9657 H   0  0  0  0  0  0  0  0  0  0  0  0
   38.0133   27.1630   52.0134 H   0  0  0  0  0  0  0  0  0  0  0  0
   37.2558   29.4060   54.4369 H   0  0  0  0  0  0  0  0  0  0  0  0
   36.8979   27.9213   54.7456 H   0  0  0  0  0  0  0  0  0  0  0  0
   39.6145   29.1839   55.5750 H   0  0  0  0  0  0  0  0  0  0  0  0
   40.3095   27.1956   55.0410 H   0  0  0  0  0  0  0  0  0  0  0  0
   38.0751   23.9724   58.3539 H   0  0  0  0  0  0  0  0  0  0  0  0
   37.1080   24.1665   56.8527 H   0  0  0  0  0  0  0  0  0  0  0  0
   38.5655   23.1167   56.8527 H   0  0  0  0  0  0  0  0  0  0  0  0
   39.4866   27.5248   57.4475 H   0  0  0  0  0  0  0  0  0  0  0  0
   40.9640   29.3377   59.1686 H   0  0  0  0  0  0  0  0  0  0  0  0
   39.5240   28.3535   57.9345 H   0  0  0  0  0  0  0  0  0  0  0  0
   39.0058   27.6102   59.9305 H   0  0  0  0  0  0  0  0  0  0  0  0
   39.6095   29.1833   60.5413 H   0  0  0  0  0  0  0  0  0  0  0  0
   38.0297   29.2086   57.9495 H   0  0  0  0  0  0  0  0  0  0  0  0
   37.1536   28.9046   59.5814 H   0  0  0  0  0  0  0  0  0  0  0  0
   39.0771   31.4758   57.5354 H   0  0  0  0  0  0  0  0  0  0  0  0
   38.6729   33.9399   57.7583 H   0  0  0  0  0  0  0  0  0  0  0  0
   37.4527   35.6628   61.2669 H   0  0  0  0  0  0  0  0  0  0  0  0
   38.8420   35.6831   60.1284 H   0  0  0  0  0  0  0  0  0  0  0  0
   37.6609   37.0365   60.1284 H   0  0  0  0  0  0  0  0  0  0  0  0
   37.3032   31.0361   61.2439 H   0  0  0  0  0  0  0  0  0  0  0  0
   35.9222   30.8898   59.9629 H   0  0  0  0  0  0  0  0  0  0  0  0
  1  2  2  0
  2  3  1  0
  3  4  1  0
  4  5  1  0
  5  6  1  0
  6  7  1  0
  7  8  1  0
  8  9  1  0
  9 10  1  0
 10 11  1  0
 10 12  2  0
 12 13  1  0
 13 14  1  0
 14 15  1  0
 15 16  1  0
 16 17  1  0
 17 18  1  0
 18 19  2  0
 19 20  1  0
 20 21  2  0
 21 22  1  0
 22 23  1  0
 21 24  1  0
 24 25  2  0
 24 26  1  0
  7  5  1  0
 13  8  1  0
 26 18  1  0
  1 27  1  0
  1 28  1  0
  2 29  1  0
  3 30  1  0
  3 31  1  0
  4 32  1  0
  4 33  1  0
  6 34  1  0
  6 35  1  0
  7 36  1  6
  8 37  1  6
 11 38  1  0
 11 39  1  0
 11 40  1  0
 13 41  1  6
 15 42  1  0
 15 43  1  0
 16 44  1  0
 16 45  1  0
 17 46  1  0
 17 47  1  0
 19 48  1  0
 20 49  1  0
 23 50  1  0
 23 51  1  0
 23 52  1  0
 26 53  1  0
 26 54  1  0
M  END
>  <docking_score>  (32) 
-8.365

>  <plif_similarity>  (32) 
0.333

$$$$
DiffSBDD_48
     RDKit          3D

 79 79  0  0  0  0  0  0  0  0999 V2000
   39.9850   30.6160   51.8120 C   0  0  0  0  0  0  0  0  0  0  0  0
   39.1700   29.6530   52.1920 O   0  0  0  0  0  0  0  0  0  0  0  0
   39.3130   28.3370   51.7510 C   0  0  0  0  0  0  0  0  0  0  0  0
   39.7000   28.2370   50.3630 C   0  0  0  0  0  0  0  0  0  0  0  0
   39.2080   27.2230   52.6710 C   0  0  0  0  0  0  0  0  0  0  0  0
   39.0220   27.4150   54.1240 C   0  0  0  0  0  0  0  0  0  0  0  0
   37.8420   26.6540   54.5650 C   0  0  0  0  0  0  0  0  0  0  0  0
   36.8310   26.6120   53.7920 O   0  0  0  0  0  0  0  0  0  0  0  0
   37.9700   25.6650   55.5120 C   0  0  1  0  0  0  0  0  0  0  0  0
   37.1430   24.3930   55.5550 C   0  0  0  0  0  0  0  0  0  0  0  0
   39.2780   25.4390   56.1370 C   0  0  0  0  0  0  0  0  0  0  0  0
   39.3240   25.8590   57.5790 C   0  0  0  0  0  0  0  0  0  0  0  0
   40.0730   27.0870   57.6180 C   0  0  0  0  0  0  0  0  0  0  0  0
   39.4890   28.3260   57.5870 C   0  0  0  0  0  0  0  0  0  0  0  0
   38.0580   28.7330   57.8800 C   0  0  0  0  0  0  0  0  0  0  0  0
   38.0380   30.3330   57.8890 N   0  0  1  0  0  0  0  0  0  0  0  0
   38.2350   30.1600   56.4660 C   0  0  0  0  0  0  0  0  0  0  0  0
   38.1930   31.1680   55.3330 C   0  0  0  0  0  0  0  0  0  0  0  0
   38.9370   32.2700   55.7170 C   0  0  0  0  0  0  0  0  0  0  0  0
   38.4920   32.9810   57.0860 C   0  0  0  0  0  0  0  0  0  0  0  0
   38.1050   32.7140   58.5810 C   0  0  1  0  0  0  0  0  0  0  0  0
   37.2930   33.5860   59.0040 N   0  0  0  0  0  0  0  0  0  0  0  0
   36.9370   34.1750   60.1890 C   0  0  0  0  0  0  0  0  0  0  0  0
   36.8610   35.6120   59.9940 C   0  0  0  0  0  0  0  0  0  0  0  0
   37.5540   36.4690   61.0800 C   0  0  1  0  0  0  0  0  0  0  0  0
   36.9080   37.7860   61.3900 C   0  0  0  0  0  0  0  0  0  0  0  0
   37.7670   38.8400   60.9390 O   0  0  0  0  0  0  0  0  0  0  0  0
   38.7260   36.0820   61.7180 C   0  0  0  0  0  0  0  0  0  0  0  0
   40.0320   36.6950   62.1780 C   0  0  0  0  0  0  0  0  0  0  0  0
   40.1230   37.7680   62.7010 O   0  0  0  0  0  0  0  0  0  0  0  0
   40.9760   35.8390   62.0570 O   0  0  0  0  0  0  0  0  0  0  0  0
   38.0070   31.2030   58.9210 C   0  0  0  0  0  0  0  0  0  0  0  0
   40.4050   31.1123   52.6993 H   0  0  0  0  0  0  0  0  0  0  0  0
   40.8008   30.1896   51.2097 H   0  0  0  0  0  0  0  0  0  0  0  0
   39.4296   31.3501   51.2097 H   0  0  0  0  0  0  0  0  0  0  0  0
   40.7631   27.9623   50.2977 H   0  0  0  0  0  0  0  0  0  0  0  0
   39.0911   27.4667   49.8672 H   0  0  0  0  0  0  0  0  0  0  0  0
   39.5405   29.2059   49.8672 H   0  0  0  0  0  0  0  0  0  0  0  0
   39.2688   26.1989   52.2741 H   0  0  0  0  0  0  0  0  0  0  0  0
   39.9130   27.0556   54.6597 H   0  0  0  0  0  0  0  0  0  0  0  0
   38.8748   28.4835   54.3400 H   0  0  0  0  0  0  0  0  0  0  0  0
   37.3362   26.3472   56.0976 H   0  0  0  0  0  0  0  0  0  0  0  0
   36.9592   24.1104   56.6021 H   0  0  0  0  0  0  0  0  0  0  0  0
   36.1822   24.5630   55.0471 H   0  0  0  0  0  0  0  0  0  0  0  0
   37.6882   23.5838   55.0471 H   0  0  0  0  0  0  0  0  0  0  0  0
   39.5136   24.3662   56.0774 H   0  0  0  0  0  0  0  0  0  0  0  0
   40.0111   26.0531   55.5935 H   0  0  0  0  0  0  0  0  0  0  0  0
   38.3054   26.0218   57.9610 H   0  0  0  0  0  0  0  0  0  0  0  0
   39.7913   25.0855   58.2061 H   0  0  0  0  0  0  0  0  0  0  0  0
   40.6592   27.0532   58.5482 H   0  0  0  0  0  0  0  0  0  0  0  0
   40.5804   27.0623   56.6423 H   0  0  0  0  0  0  0  0  0  0  0  0
   40.0881   28.9237   58.2897 H   0  0  0  0  0  0  0  0  0  0  0  0
   39.4542   28.4444   56.4939 H   0  0  0  0  0  0  0  0  0  0  0  0
   37.3853   28.3482   57.0993 H   0  0  0  0  0  0  0  0  0  0  0  0
   37.7153   28.3238   58.8419 H   0  0  0  0  0  0  0  0  0  0  0  0
   39.0670   30.3460   57.9100 H   0  0  0  0  0  0  0  0  0  0  0  0
   39.2386   29.7164   56.3892 H   0  0  0  0  0  0  0  0  0  0  0  0
   37.2733   29.6709   56.2517 H   0  0  0  0  0  0  0  0  0  0  0  0
   38.6232   30.7253   54.4226 H   0  0  0  0  0  0  0  0  0  0  0  0
   37.1547   31.4619   55.1195 H   0  0  0  0  0  0  0  0  0  0  0  0
   39.9823   31.9467   55.8306 H   0  0  0  0  0  0  0  0  0  0  0  0
   38.7797   33.0215   54.9293 H   0  0  0  0  0  0  0  0  0  0  0  0
   39.3234   33.6886   57.2205 H   0  0  0  0  0  0  0  0  0  0  0  0
   37.4347   32.9405   56.7854 H   0  0  0  0  0  0  0  0  0  0  0  0
   38.9195   32.9159   59.2922 H   0  0  0  0  0  0  0  0  0  0  0  0
   37.5460   34.4030   58.4310 H   0  0  0  0  0  0  0  0  0  0  0  0
   36.5080   32.9190   59.0340 H   0  0  0  0  0  0  0  0  0  0  0  0
   35.9570   33.7935   60.5116 H   0  0  0  0  0  0  0  0  0  0  0  0
   37.6849   33.9420   60.9613 H   0  0  0  0  0  0  0  0  0  0  0  0
   37.3285   35.8480   59.0266 H   0  0  0  0  0  0  0  0  0  0  0  0
   35.7923   35.8675   60.0440 H   0  0  0  0  0  0  0  0  0  0  0  0
   38.1685   36.9525   60.3063 H   0  0  0  0  0  0  0  0  0  0  0  0
   35.9388   37.8528   60.8740 H   0  0  0  0  0  0  0  0  0  0  0  0
   36.7445   37.8757   62.4741 H   0  0  0  0  0  0  0  0  0  0  0  0
   38.5150   38.9510   61.5780 H   0  0  0  0  0  0  0  0  0  0  0  0
   38.3388   35.6542   62.6545 H   0  0  0  0  0  0  0  0  0  0  0  0
   39.1696   35.6898   60.7910 H   0  0  0  0  0  0  0  0  0  0  0  0
   38.8493   30.9584   59.5849 H   0  0  0  0  0  0  0  0  0  0  0  0
   37.0089   31.0778   59.3662 H   0  0  0  0  0  0  0  0  0  0  0  0
  1  2  1  0
  2  3  1  0
  3  4  1  0
  3  5  2  3
  5  6  1  0
  6  7  1  0
  7  8  2  0
  7  9  1  0
  9 10  1  0
  9 11  1  0
 11 12  1  0
 12 13  1  0
 13 14  1  0
 14 15  1  0
 15 16  1  0
 16 17  1  0
 17 18  1  0
 18 19  1  0
 19 20  1  0
 20 21  1  0
 21 22  1  0
 22 23  1  0
 23 24  1  0
 24 25  1  0
 25 26  1  0
 26 27  1  0
 25 28  1  0
 28 29  1  0
 29 30  2  0
 29 31  1  0
 21 32  1  0
 32 16  1  0
  1 33  1  0
  1 34  1  0
  1 35  1  0
  4 36  1  0
  4 37  1  0
  4 38  1  0
  5 39  1  0
  6 40  1  0
  6 41  1  0
  9 42  1  1
 10 43  1  0
 10 44  1  0
 10 45  1  0
 11 46  1  0
 11 47  1  0
 12 48  1  0
 12 49  1  0
 13 50  1  0
 13 51  1  0
 14 52  1  0
 14 53  1  0
 15 54  1  0
 15 55  1  0
 16 56  1  6
 17 57  1  0
 17 58  1  0
 18 59  1  0
 18 60  1  0
 19 61  1  0
 19 62  1  0
 20 63  1  0
 20 64  1  0
 21 65  1  1
 22 66  1  0
 22 67  1  0
 23 68  1  0
 23 69  1  0
 24 70  1  0
 24 71  1  0
 25 72  1  6
 26 73  1  0
 26 74  1  0
 27 75  1  0
 28 76  1  0
 28 77  1  0
 32 78  1  0
 32 79  1  0
M  CHG  3  16   1  22   1  31  -1
M  END
>  <docking_score>  (33) 
-8.23

>  <plif_similarity>  (33) 
0.333

$$$$
DiffSBDD_49
     RDKit          3D

 47 46  0  0  0  0  0  0  0  0999 V2000
   36.8890   24.2910   55.4860 C   0  0  0  0  0  0  0  0  0  0  0  0
   36.9350   25.0190   56.7650 C   0  0  0  0  0  0  0  0  0  0  0  0
   37.9700   26.1350   56.8830 C   0  0  2  0  0  0  0  0  0  0  0  0
   38.7530   26.3620   55.5940 C   0  0  0  0  0  0  0  0  0  0  0  0
   38.3740   27.6430   54.6660 C   0  0  1  0  0  0  0  0  0  0  0  0
   37.2130   28.1420   53.7630 C   0  0  0  0  0  0  0  0  0  0  0  0
   39.0520   28.8790   55.1770 C   0  0  0  0  0  0  0  0  0  0  0  0
   38.9650   30.1150   54.4780 C   0  0  0  0  0  0  0  0  0  0  0  0
   39.8370   30.5350   53.4530 C   0  0  0  0  0  0  0  0  0  0  0  0
   39.4920   30.4870   52.1300 C   0  0  0  0  0  0  0  0  0  0  0  0
   40.2640   29.6940   51.3040 C   0  0  0  0  0  0  0  0  0  0  0  0
   39.7090   28.2210   51.0330 C   0  0  0  0  0  0  0  0  0  0  0  0
   40.6710   30.3340   49.8080 C   0  0  0  0  0  0  0  0  0  0  0  0
   39.0790   25.5760   57.8090 C   0  0  1  0  0  0  0  0  0  0  0  0
   39.9240   24.7290   57.2430 O   0  0  0  0  0  0  0  0  0  0  0  0
   40.0580   26.6810   58.2220 C   0  0  0  0  0  0  0  0  0  0  0  0
   41.1320   26.8050   57.8610 O   0  0  0  0  0  0  0  0  0  0  0  0
   39.6220   27.3880   59.1410 O   0  0  0  0  0  0  0  0  0  0  0  0
   36.8207   23.2106   55.6813 H   0  0  0  0  0  0  0  0  0  0  0  0
   36.0096   24.6159   54.9106 H   0  0  0  0  0  0  0  0  0  0  0  0
   37.8023   24.5026   54.9106 H   0  0  0  0  0  0  0  0  0  0  0  0
   35.9433   25.4655   56.9300 H   0  0  0  0  0  0  0  0  0  0  0  0
   37.2322   24.2694   57.5132 H   0  0  0  0  0  0  0  0  0  0  0  0
   37.4379   27.0453   57.1964 H   0  0  0  0  0  0  0  0  0  0  0  0
   39.8121   26.4657   55.8724 H   0  0  0  0  0  0  0  0  0  0  0  0
   38.4966   25.4939   54.9690 H   0  0  0  0  0  0  0  0  0  0  0  0
   38.5137   26.8406   53.9266 H   0  0  0  0  0  0  0  0  0  0  0  0
   36.3850   28.4979   54.3936 H   0  0  0  0  0  0  0  0  0  0  0  0
   37.5705   28.9659   53.1279 H   0  0  0  0  0  0  0  0  0  0  0  0
   36.8612   27.3156   53.1279 H   0  0  0  0  0  0  0  0  0  0  0  0
   38.6473   29.0619   56.1834 H   0  0  0  0  0  0  0  0  0  0  0  0
   40.1174   28.6241   55.0769 H   0  0  0  0  0  0  0  0  0  0  0  0
   37.9607   30.1263   54.0293 H   0  0  0  0  0  0  0  0  0  0  0  0
   39.2550   30.8120   55.2781 H   0  0  0  0  0  0  0  0  0  0  0  0
   40.0776   31.5866   53.6682 H   0  0  0  0  0  0  0  0  0  0  0  0
   40.6313   29.7760   53.5070 H   0  0  0  0  0  0  0  0  0  0  0  0
   38.4577   30.1173   52.0711 H   0  0  0  0  0  0  0  0  0  0  0  0
   39.6432   31.5120   51.7606 H   0  0  0  0  0  0  0  0  0  0  0  0
   41.1652   29.6484   51.9331 H   0  0  0  0  0  0  0  0  0  0  0  0
   39.5196   27.7182   51.9928 H   0  0  0  0  0  0  0  0  0  0  0  0
   38.7721   28.2819   50.4598 H   0  0  0  0  0  0  0  0  0  0  0  0
   40.4531   27.6485   50.4598 H   0  0  0  0  0  0  0  0  0  0  0  0
   41.2564   31.2544   49.9499 H   0  0  0  0  0  0  0  0  0  0  0  0
   41.2697   29.6017   49.2465 H   0  0  0  0  0  0  0  0  0  0  0  0
   39.7539   30.5656   49.2465 H   0  0  0  0  0  0  0  0  0  0  0  0
   38.4854   25.1088   58.6086 H   0  0  0  0  0  0  0  0  0  0  0  0
   40.6800   24.5570   57.8580 H   0  0  0  0  0  0  0  0  0  0  0  0
  1  2  1  0
  2  3  1  0
  3  4  1  0
  4  5  1  0
  5  6  1  0
  5  7  1  0
  7  8  1  0
  8  9  1  0
  9 10  1  0
 10 11  1  0
 11 12  1  0
 11 13  1  0
  3 14  1  0
 14 15  1  0
 14 16  1  0
 16 17  2  0
 16 18  1  0
  1 19  1  0
  1 20  1  0
  1 21  1  0
  2 22  1  0
  2 23  1  0
  3 24  1  1
  4 25  1  0
  4 26  1  0
  5 27  1  6
  6 28  1  0
  6 29  1  0
  6 30  1  0
  7 31  1  0
  7 32  1  0
  8 33  1  0
  8 34  1  0
  9 35  1  0
  9 36  1  0
 10 37  1  0
 10 38  1  0
 11 39  1  0
 12 40  1  0
 12 41  1  0
 12 42  1  0
 13 43  1  0
 13 44  1  0
 13 45  1  0
 14 46  1  1
 15 47  1  0
M  CHG  1  18  -1
M  END
>  <docking_score>  (34) 
-7.213

>  <plif_similarity>  (34) 
0.333

$$$$
DiffSBDD_4
     RDKit          3D

 84 86  0  0  0  0  0  0  0  0999 V2000
   35.0690   32.9480   61.4750 C   0  0  0  0  0  0  0  0  0  0  0  0
   35.9050   34.0250   61.1780 C   0  0  0  0  0  0  0  0  0  0  0  0
   36.1170   34.1190   59.7440 C   0  0  0  0  0  0  0  0  0  0  0  0
   37.5120   34.3220   59.1150 C   0  0  0  0  0  0  0  0  0  0  0  0
   38.3510   33.1250   58.5880 C   0  0  2  0  0  0  0  0  0  0  0  0
   38.4100   33.2870   57.0630 C   0  0  0  0  0  0  0  0  0  0  0  0
   39.3040   32.4740   56.2290 C   0  0  0  0  0  0  0  0  0  0  0  0
   38.7250   31.1430   55.7410 C   0  0  0  0  0  0  0  0  0  0  0  0
   38.9080   30.6230   54.3800 C   0  0  0  0  0  0  0  0  0  0  0  0
   39.2650   31.3920   53.4300 F   0  0  0  0  0  0  0  0  0  0  0  0
   38.5520   29.3700   54.0510 C   0  0  0  0  0  0  0  0  0  0  0  0
   37.9480   28.5800   54.9960 C   0  0  0  0  0  0  0  0  0  0  0  0
   37.5900   27.2620   54.5800 C   0  0  0  0  0  0  0  0  0  0  0  0
   36.8450   27.2900   53.3790 N   0  0  0  0  0  0  0  0  0  0  0  0
   37.6520   28.9800   56.2910 C   0  0  0  0  0  0  0  0  0  0  0  0
   38.0840   30.3300   56.7110 C   0  0  0  0  0  0  0  0  0  0  0  0
   37.8290   30.7160   58.0850 C   0  0  0  0  0  0  0  0  0  0  0  0
   37.9650   31.8030   59.0890 C   0  0  1  0  0  0  0  0  0  0  0  0
   38.1840   31.3700   60.6100 C   0  0  0  0  0  0  0  0  0  0  0  0
   37.4760   30.5080   61.0780 O   0  0  0  0  0  0  0  0  0  0  0  0
   39.2840   31.9700   61.2630 N   0  0  0  0  0  0  0  0  0  0  0  0
   39.4370   33.2410   61.8690 C   0  0  0  0  0  0  0  0  0  0  0  0
   40.5290   31.2120   61.1970 C   0  0  0  0  0  0  0  0  0  0  0  0
   41.2940   31.6910   61.5080 O   0  0  0  0  0  0  0  0  0  0  0  0
   40.7110   29.3280   61.3320 C   0  0  1  0  0  0  0  0  0  0  0  0
   40.8950   29.1930   62.7940 C   0  0  0  0  0  0  0  0  0  0  0  0
   41.2770   28.1630   63.0020 C   0  0  0  0  0  0  0  0  0  0  0  0
   39.8650   28.2020   60.9960 C   0  0  0  0  0  0  0  0  0  0  0  0
   39.8920   28.0590   59.4730 C   0  0  1  0  0  0  0  0  0  0  0  0
   41.2110   28.1770   58.8950 C   0  0  0  0  0  0  0  0  0  0  0  0
   41.4030   27.9570   57.4390 C   0  0  0  0  0  0  0  0  0  0  0  0
   40.5430   27.1520   56.9200 C   0  0  0  0  0  0  0  0  0  0  0  0
   39.4100   26.3880   57.7480 C   0  0  1  0  0  0  0  0  0  0  0  0
   39.0980   25.2730   57.3450 C   0  0  0  0  0  0  0  0  0  0  0  0
   38.6620   24.3290   58.0990 N   0  0  0  0  0  0  0  0  0  0  0  0
   39.7270   24.8230   56.2900 O   0  0  0  0  0  0  0  0  0  0  0  0
   39.1610   27.0410   58.9510 C   0  0  0  0  0  0  0  0  0  0  0  0
   34.9847   32.8394   62.5664 H   0  0  0  0  0  0  0  0  0  0  0  0
   34.0722   33.1285   61.0464 H   0  0  0  0  0  0  0  0  0  0  0  0
   35.4911   32.0271   61.0464 H   0  0  0  0  0  0  0  0  0  0  0  0
   35.4403   34.9549   61.5377 H   0  0  0  0  0  0  0  0  0  0  0  0
   36.8750   33.8719   61.6735 H   0  0  0  0  0  0  0  0  0  0  0  0
   35.7244   33.1843   59.3171 H   0  0  0  0  0  0  0  0  0  0  0  0
   35.6271   35.0757   59.5099 H   0  0  0  0  0  0  0  0  0  0  0  0
   37.3707   35.0008   58.2610 H   0  0  0  0  0  0  0  0  0  0  0  0
   38.1082   34.6669   59.9726 H   0  0  0  0  0  0  0  0  0  0  0  0
   39.3687   33.1598   59.0040 H   0  0  0  0  0  0  0  0  0  0  0  0
   37.3906   33.1012   56.6938 H   0  0  0  0  0  0  0  0  0  0  0  0
   38.8425   34.2925   56.9537 H   0  0  0  0  0  0  0  0  0  0  0  0
   39.5762   33.0691   55.3448 H   0  0  0  0  0  0  0  0  0  0  0  0
   40.1590   32.2132   56.8700 H   0  0  0  0  0  0  0  0  0  0  0  0
   38.7420   28.9833   53.0389 H   0  0  0  0  0  0  0  0  0  0  0  0
   38.5063   26.6748   54.4203 H   0  0  0  0  0  0  0  0  0  0  0  0
   36.9689   26.8056   55.3648 H   0  0  0  0  0  0  0  0  0  0  0  0
   37.0910   28.1320   52.8410 H   0  0  0  0  0  0  0  0  0  0  0  0
   37.0610   26.4500   52.8220 H   0  0  0  0  0  0  0  0  0  0  0  0
   35.8380   27.3050   53.6000 H   0  0  0  0  0  0  0  0  0  0  0  0
   37.1138   28.3148   56.9823 H   0  0  0  0  0  0  0  0  0  0  0  0
   36.7432   30.5467   58.1326 H   0  0  0  0  0  0  0  0  0  0  0  0
   38.7982   30.2967   58.3930 H   0  0  0  0  0  0  0  0  0  0  0  0
   36.9393   32.1370   59.3042 H   0  0  0  0  0  0  0  0  0  0  0  0
   39.4236   33.1295   62.9633 H   0  0  0  0  0  0  0  0  0  0  0  0
   40.3948   33.6830   61.5572 H   0  0  0  0  0  0  0  0  0  0  0  0
   38.6114   33.8977   61.5572 H   0  0  0  0  0  0  0  0  0  0  0  0
   41.3975   29.1749   60.4862 H   0  0  0  0  0  0  0  0  0  0  0  0
   41.6214   29.9389   63.1489 H   0  0  0  0  0  0  0  0  0  0  0  0
   39.9406   29.3582   63.3153 H   0  0  0  0  0  0  0  0  0  0  0  0
   41.3352   28.0061   64.0892 H   0  0  0  0  0  0  0  0  0  0  0  0
   40.5937   27.4225   62.5607 H   0  0  0  0  0  0  0  0  0  0  0  0
   42.2779   28.0471   62.5607 H   0  0  0  0  0  0  0  0  0  0  0  0
   40.2504   27.2862   61.4680 H   0  0  0  0  0  0  0  0  0  0  0  0
   38.8381   28.3620   61.3565 H   0  0  0  0  0  0  0  0  0  0  0  0
   39.3381   28.9512   59.1455 H   0  0  0  0  0  0  0  0  0  0  0  0
   41.5634   29.1962   59.1119 H   0  0  0  0  0  0  0  0  0  0  0  0
   41.7647   27.3442   59.3531 H   0  0  0  0  0  0  0  0  0  0  0  0
   41.3232   28.9276   56.9275 H   0  0  0  0  0  0  0  0  0  0  0  0
   42.3934   27.4958   57.3112 H   0  0  0  0  0  0  0  0  0  0  0  0
   40.0088   27.7393   56.1586 H   0  0  0  0  0  0  0  0  0  0  0  0
   41.1932   26.3111   56.6370 H   0  0  0  0  0  0  0  0  0  0  0  0
   38.3225   26.2380   57.6780 H   0  0  0  0  0  0  0  0  0  0  0  0
   38.4190   23.4160   57.6910 H   0  0  0  0  0  0  0  0  0  0  0  0
   38.5560   24.4860   59.1110 H   0  0  0  0  0  0  0  0  0  0  0  0
   38.1395   27.4382   58.8573 H   0  0  0  0  0  0  0  0  0  0  0  0
   39.4248   26.2398   59.6570 H   0  0  0  0  0  0  0  0  0  0  0  0
  1  2  1  0
  2  3  1  0
  3  4  1  0
  4  5  1  0
  5  6  1  0
  6  7  1  0
  7  8  1  0
  8  9  1  0
  9 10  1  0
  9 11  2  0
 11 12  1  0
 12 13  1  0
 13 14  1  0
 12 15  2  0
 15 16  1  0
 16 17  1  0
 17 18  1  0
 18 19  1  0
 19 20  2  0
 19 21  1  0
 21 22  1  0
 21 23  1  0
 23 24  2  0
 23 25  1  0
 25 26  1  0
 26 27  1  0
 25 28  1  0
 28 29  1  0
 29 30  1  0
 30 31  1  0
 31 32  1  0
 32 33  1  0
 33 34  1  0
 34 35  1  0
 34 36  2  0
 33 37  1  0
 18  5  1  0
 37 29  1  0
 16  8  2  0
  1 38  1  0
  1 39  1  0
  1 40  1  0
  2 41  1  0
  2 42  1  0
  3 43  1  0
  3 44  1  0
  4 45  1  0
  4 46  1  0
  5 47  1  1
  6 48  1  0
  6 49  1  0
  7 50  1  0
  7 51  1  0
 11 52  1  0
 13 53  1  0
 13 54  1  0
 14 55  1  0
 14 56  1  0
 14 57  1  0
 15 58  1  0
 17 59  1  0
 17 60  1  0
 18 61  1  1
 22 62  1  0
 22 63  1  0
 22 64  1  0
 25 65  1  6
 26 66  1  0
 26 67  1  0
 27 68  1  0
 27 69  1  0
 27 70  1  0
 28 71  1  0
 28 72  1  0
 29 73  1  6
 30 74  1  0
 30 75  1  0
 31 76  1  0
 31 77  1  0
 32 78  1  0
 32 79  1  0
 33 80  1  6
 35 81  1  0
 35 82  1  0
 37 83  1  0
 37 84  1  0
M  CHG  1  14   1
M  END
>  <docking_score>  (35) 
-10.079

>  <plif_similarity>  (35) 
0.222

$$$$
DiffSBDD_6
     RDKit          3D

 51 52  0  0  0  0  0  0  0  0999 V2000
   37.4630   27.9670   53.6410 C   0  0  0  0  0  0  0  0  0  0  0  0
   38.5560   28.4810   52.6660 C   0  0  0  0  0  0  0  0  0  0  0  0
   38.7500   27.6900   51.4000 C   0  0  0  0  0  0  0  0  0  0  0  0
   39.7830   28.4910   50.5110 C   0  0  0  0  0  0  0  0  0  0  0  0
   40.2160   29.7710   51.3290 C   0  0  0  0  0  0  0  0  0  0  0  0
   39.4150   29.7150   52.7180 C   0  0  0  0  0  0  0  0  0  0  0  0
   39.6690   30.6630   53.7810 C   0  0  0  0  0  0  0  0  0  0  0  0
   38.7580   31.1180   54.7810 C   0  0  0  0  0  0  0  0  0  0  0  0
   37.7790   31.8860   54.6870 O   0  0  0  0  0  0  0  0  0  0  0  0
   39.0430   30.5250   56.1690 C   0  0  0  0  0  0  0  0  0  0  0  0
   37.7460   29.9820   56.7860 C   0  0  0  0  0  0  0  0  0  0  0  0
   37.7570   31.0210   57.9020 N   0  0  0  0  0  0  0  0  0  0  0  0
   37.6110   30.6010   59.1940 C   0  0  0  0  0  0  0  0  0  0  0  0
   36.4460   30.2160   59.5730 O   0  0  0  0  0  0  0  0  0  0  0  0
   38.8260   30.3390   60.2360 C   0  0  2  0  0  0  0  0  0  0  0  0
   40.1570   30.8270   61.1180 C   0  0  0  0  0  0  0  0  0  0  0  0
   39.3730   29.0030   59.9240 C   0  0  0  0  0  0  0  0  0  0  0  0
   39.4230   28.0550   59.3620 C   0  0  0  0  0  0  0  0  0  0  0  0
   39.2570   26.7530   58.5720 C   0  0  0  0  0  0  0  0  0  0  0  0
   38.8730   26.4850   57.1570 C   0  0  1  0  0  0  0  0  0  0  0  0
   39.9610   26.9610   56.2280 C   0  0  0  0  0  0  0  0  0  0  0  0
   40.0180   25.8790   55.1540 C   0  0  0  0  0  0  0  0  0  0  0  0
   39.1290   24.8170   55.5530 O   0  0  0  0  0  0  0  0  0  0  0  0
   38.9120   24.9830   56.9850 C   0  0  0  0  0  0  0  0  0  0  0  0
   37.7943   28.1228   54.6783 H   0  0  0  0  0  0  0  0  0  0  0  0
   36.5279   28.5197   53.4678 H   0  0  0  0  0  0  0  0  0  0  0  0
   37.2923   26.8942   53.4678 H   0  0  0  0  0  0  0  0  0  0  0  0
   38.2654   26.7366   51.1426 H   0  0  0  0  0  0  0  0  0  0  0  0
   40.6622   27.8647   50.2994 H   0  0  0  0  0  0  0  0  0  0  0  0
   39.3290   28.7783   49.5511 H   0  0  0  0  0  0  0  0  0  0  0  0
   40.9265   30.5475   51.0094 H   0  0  0  0  0  0  0  0  0  0  0  0
   40.5108   30.2334   54.3439 H   0  0  0  0  0  0  0  0  0  0  0  0
   39.7304   31.5809   53.1779 H   0  0  0  0  0  0  0  0  0  0  0  0
   39.7709   29.7060   56.0725 H   0  0  0  0  0  0  0  0  0  0  0  0
   39.4503   31.3121   56.8206 H   0  0  0  0  0  0  0  0  0  0  0  0
   36.8752   30.0643   56.1190 H   0  0  0  0  0  0  0  0  0  0  0  0
   37.6881   28.9161   57.0514 H   0  0  0  0  0  0  0  0  0  0  0  0
   37.8720   32.0220   57.6850 H   0  0  0  0  0  0  0  0  0  0  0  0
   38.1645   31.0516   60.7505 H   0  0  0  0  0  0  0  0  0  0  0  0
   39.9349   30.7456   62.1923 H   0  0  0  0  0  0  0  0  0  0  0  0
   41.0157   30.1852   60.8714 H   0  0  0  0  0  0  0  0  0  0  0  0
   40.3973   31.8717   60.8714 H   0  0  0  0  0  0  0  0  0  0  0  0
   40.1793   28.8908   60.6637 H   0  0  0  0  0  0  0  0  0  0  0  0
   39.4592   25.8453   59.1595 H   0  0  0  0  0  0  0  0  0  0  0  0
   37.9056   26.9640   56.9457 H   0  0  0  0  0  0  0  0  0  0  0  0
   39.7033   27.9362   55.7891 H   0  0  0  0  0  0  0  0  0  0  0  0
   40.9244   27.1062   56.7386 H   0  0  0  0  0  0  0  0  0  0  0  0
   39.6960   26.2936   54.1873 H   0  0  0  0  0  0  0  0  0  0  0  0
   41.0448   25.5002   55.0434 H   0  0  0  0  0  0  0  0  0  0  0  0
   37.9610   24.5256   57.2954 H   0  0  0  0  0  0  0  0  0  0  0  0
   39.6867   24.4987   57.5976 H   0  0  0  0  0  0  0  0  0  0  0  0
  1  2  1  0
  2  3  2  0
  3  4  1  0
  4  5  1  0
  5  6  2  0
  6  7  1  0
  7  8  1  0
  8  9  2  0
  8 10  1  0
 10 11  1  0
 11 12  1  0
 12 13  1  0
 13 14  2  0
 13 15  1  0
 15 16  1  0
 15 17  1  0
 17 18  2  0
 18 19  2  0
 19 20  1  0
 20 21  1  0
 21 22  1  0
 22 23  1  0
 23 24  1  0
  6  2  1  0
 24 20  1  0
  1 25  1  0
  1 26  1  0
  1 27  1  0
  3 28  1  0
  4 29  1  0
  4 30  1  0
  5 31  1  0
  7 32  1  0
  7 33  1  0
 10 34  1  0
 10 35  1  0
 11 36  1  0
 11 37  1  0
 12 38  1  0
 15 39  1  1
 16 40  1  0
 16 41  1  0
 16 42  1  0
 17 43  1  0
 19 44  1  0
 20 45  1  6
 21 46  1  0
 21 47  1  0
 22 48  1  0
 22 49  1  0
 24 50  1  0
 24 51  1  0
M  END
>  <docking_score>  (36) 
-8.864

>  <plif_similarity>  (36) 
0.222

$$$$
DiffSBDD_7
     RDKit          3D

 60 60  0  0  0  0  0  0  0  0999 V2000
   40.2650   29.8010   50.1000 C   0  0  0  0  0  0  0  0  0  0  0  0
   40.0140   30.5740   51.4530 C   0  0  0  0  0  0  0  0  0  0  0  0
   39.8320   30.5390   52.5530 C   0  0  0  0  0  0  0  0  0  0  0  0
   40.1130   30.5590   53.7900 C   0  0  0  0  0  0  0  0  0  0  0  0
   38.5310   30.5300   54.5040 C   0  0  2  0  0  0  0  0  0  0  0  0
   38.3480   31.7600   55.1940 C   0  0  0  0  0  0  0  0  0  0  0  0
   38.1650   32.0250   56.7200 C   0  0  1  0  0  0  0  0  0  0  0  0
   38.5600   31.9430   58.1330 C   0  0  0  0  0  0  0  0  0  0  0  0
   37.8730   33.3910   56.5470 O   0  0  0  0  0  0  0  0  0  0  0  0
   39.2600   28.8200   54.8460 C   0  0  0  0  0  0  0  0  0  0  0  0
   38.2640   28.0940   55.0070 C   0  0  1  0  0  0  0  0  0  0  0  0
   37.5770   26.9660   53.8630 C   0  0  2  0  0  0  0  0  0  0  0  0
   36.6750   27.4890   53.3540 O   0  0  0  0  0  0  0  0  0  0  0  0
   37.6930   26.0520   54.7420 C   0  0  0  0  0  0  0  0  0  0  0  0
   38.4160   26.9650   55.8020 N   0  0  0  0  0  0  0  0  0  0  0  0
   37.7420   26.9340   56.9820 C   0  0  0  0  0  0  0  0  0  0  0  0
   37.0730   26.0070   57.3060 O   0  0  0  0  0  0  0  0  0  0  0  0
   38.0950   28.0100   57.8560 C   0  0  0  0  0  0  0  0  0  0  0  0
   39.3370   27.6750   58.6110 C   0  0  0  0  0  0  0  0  0  0  0  0
   39.1420   28.0910   59.9900 C   0  0  0  0  0  0  0  0  0  0  0  0
   39.9370   26.1980   58.4160 C   0  0  0  0  0  0  0  0  0  0  0  0
   40.5000   28.6710   58.0430 C   0  0  0  0  0  0  0  0  0  0  0  0
   41.8600   27.8070   57.9420 C   0  0  0  0  0  0  0  0  0  0  0  0
   40.5979   28.7759   50.3197 H   0  0  0  0  0  0  0  0  0  0  0  0
   39.3318   29.7668   49.5187 H   0  0  0  0  0  0  0  0  0  0  0  0
   41.0403   30.3216   49.5187 H   0  0  0  0  0  0  0  0  0  0  0  0
   40.9044   31.2199   51.4480 H   0  0  0  0  0  0  0  0  0  0  0  0
   38.9304   30.4851   51.2857 H   0  0  0  0  0  0  0  0  0  0  0  0
   39.0929   31.3532   52.5815 H   0  0  0  0  0  0  0  0  0  0  0  0
   40.2089   29.5058   52.5336 H   0  0  0  0  0  0  0  0  0  0  0  0
   40.7023   29.6774   54.0826 H   0  0  0  0  0  0  0  0  0  0  0  0
   40.7280   31.4179   54.0966 H   0  0  0  0  0  0  0  0  0  0  0  0
   37.4565   30.5513   54.2697 H   0  0  0  0  0  0  0  0  0  0  0  0
   39.2293   32.3582   54.9192 H   0  0  0  0  0  0  0  0  0  0  0  0
   37.3106   31.9530   54.8832 H   0  0  0  0  0  0  0  0  0  0  0  0
   37.9125   30.9727   56.9175 H   0  0  0  0  0  0  0  0  0  0  0  0
   37.6821   32.1252   58.7703 H   0  0  0  0  0  0  0  0  0  0  0  0
   38.9642   30.9418   58.3432 H   0  0  0  0  0  0  0  0  0  0  0  0
   39.3293   32.7006   58.3432 H   0  0  0  0  0  0  0  0  0  0  0  0
   37.0340   33.6120   57.0240 H   0  0  0  0  0  0  0  0  0  0  0  0
   39.8619   28.4740   53.9928 H   0  0  0  0  0  0  0  0  0  0  0  0
   39.9330   28.8136   55.7161 H   0  0  0  0  0  0  0  0  0  0  0  0
   37.7154   29.0206   55.2317 H   0  0  0  0  0  0  0  0  0  0  0  0
   37.8916   26.5598   52.8904 H   0  0  0  0  0  0  0  0  0  0  0  0
   36.3430   28.2160   53.9380 H   0  0  0  0  0  0  0  0  0  0  0  0
   36.7231   25.6716   55.0949 H   0  0  0  0  0  0  0  0  0  0  0  0
   38.1961   25.1201   54.4447 H   0  0  0  0  0  0  0  0  0  0  0  0
   38.2655   28.9197   57.2616 H   0  0  0  0  0  0  0  0  0  0  0  0
   37.2749   28.1758   58.5701 H   0  0  0  0  0  0  0  0  0  0  0  0
   39.5104   27.3050   60.6657 H   0  0  0  0  0  0  0  0  0  0  0  0
   39.6972   29.0226   60.1740 H   0  0  0  0  0  0  0  0  0  0  0  0
   38.0708   28.2602   60.1740 H   0  0  0  0  0  0  0  0  0  0  0  0
   40.1214   25.7442   59.4009 H   0  0  0  0  0  0  0  0  0  0  0  0
   39.2182   25.5811   57.8568 H   0  0  0  0  0  0  0  0  0  0  0  0
   40.8824   26.2572   57.8568 H   0  0  0  0  0  0  0  0  0  0  0  0
   40.2195   29.0500   57.0492 H   0  0  0  0  0  0  0  0  0  0  0  0
   40.6346   29.5350   58.7103 H   0  0  0  0  0  0  0  0  0  0  0  0
   42.2236   27.5760   58.9541 H   0  0  0  0  0  0  0  0  0  0  0  0
   41.6599   26.8701   57.4015 H   0  0  0  0  0  0  0  0  0  0  0  0
   42.6231   28.3863   57.4015 H   0  0  0  0  0  0  0  0  0  0  0  0
  1  2  1  0
  2  3  1  0
  3  4  1  0
  4  5  1  0
  5  6  1  0
  6  7  1  0
  7  8  1  0
  7  9  1  0
  5 10  1  0
 10 11  1  0
 11 12  1  0
 12 13  1  0
 12 14  1  0
 14 15  1  0
 15 16  1  0
 16 17  2  0
 16 18  1  0
 18 19  1  0
 19 20  1  0
 19 21  1  0
 19 22  1  0
 22 23  1  0
 15 11  1  0
  1 24  1  0
  1 25  1  0
  1 26  1  0
  2 27  1  0
  2 28  1  0
  3 29  1  0
  3 30  1  0
  4 31  1  0
  4 32  1  0
  5 33  1  6
  6 34  1  0
  6 35  1  0
  7 36  1  1
  8 37  1  0
  8 38  1  0
  8 39  1  0
  9 40  1  0
 10 41  1  0
 10 42  1  0
 11 43  1  1
 12 44  1  6
 13 45  1  0
 14 46  1  0
 14 47  1  0
 18 48  1  0
 18 49  1  0
 20 50  1  0
 20 51  1  0
 20 52  1  0
 21 53  1  0
 21 54  1  0
 21 55  1  0
 22 56  1  0
 22 57  1  0
 23 58  1  0
 23 59  1  0
 23 60  1  0
M  END
>  <docking_score>  (37) 
-8.366

>  <plif_similarity>  (37) 
0.333

$$$$
DiffSBDD_8
     RDKit          3D

 49 52  0  0  0  0  0  0  0  0999 V2000
   39.1140   34.2210   60.3900 C   0  0  0  0  0  0  0  0  0  0  0  0
   38.2420   33.7290   59.2660 C   0  0  0  0  0  0  0  0  0  0  0  0
   38.3200   32.2970   58.9300 C   0  0  0  0  0  0  0  0  0  0  0  0
   38.3200   32.0580   57.4200 C   0  0  0  0  0  0  0  0  0  0  0  0
   38.1720   30.6790   57.0530 N   0  0  0  0  0  0  0  0  0  0  0  0
   38.2960   29.9910   58.3050 C   0  0  0  0  0  0  0  0  0  0  0  0
   39.4580   29.2760   58.0690 C   0  0  0  0  0  0  0  0  0  0  0  0
   39.5250   29.0290   56.5600 C   0  0  0  0  0  0  0  0  0  0  0  0
   39.1790   27.7760   55.5700 C   0  0  0  0  0  0  0  0  0  0  0  0
   39.1700   26.7430   56.6930 C   0  0  2  0  0  0  0  0  0  0  0  0
   40.1480   25.6460   56.6200 O   0  0  0  0  0  0  0  0  0  0  0  0
   38.8040   25.5660   56.5230 C   0  0  1  0  0  0  0  0  0  0  0  0
   38.7560   24.5960   57.2070 C   0  0  0  0  0  0  0  0  0  0  0  0
   39.0860   27.3600   54.1850 C   0  0  0  0  0  0  0  0  0  0  0  0
   39.2020   28.3220   53.0710 C   0  0  0  0  0  0  0  0  0  0  0  0
   39.0830   27.8930   51.7920 C   0  0  0  0  0  0  0  0  0  0  0  0
   38.6130   26.6670   51.5510 F   0  0  0  0  0  0  0  0  0  0  0  0
   39.3390   28.6960   50.7900 C   0  0  0  0  0  0  0  0  0  0  0  0
   39.7940   29.9330   51.0120 C   0  0  0  0  0  0  0  0  0  0  0  0
   40.1150   30.7770   50.0030 N   0  0  0  0  0  0  0  0  0  0  0  0
   39.8420   30.4230   52.3280 C   0  0  0  0  0  0  0  0  0  0  0  0
   39.5190   29.6290   53.3400 C   0  0  0  0  0  0  0  0  0  0  0  0
   39.6150   30.2010   54.6410 N   0  0  0  0  0  0  0  0  0  0  0  0
   39.1140   30.2700   55.9640 C   0  0  0  0  0  0  0  0  0  0  0  0
   38.6519   33.9603   61.3536 H   0  0  0  0  0  0  0  0  0  0  0  0
   40.1050   33.7489   60.3189 H   0  0  0  0  0  0  0  0  0  0  0  0
   39.2223   35.3133   60.3189 H   0  0  0  0  0  0  0  0  0  0  0  0
   37.1986   33.9490   59.5361 H   0  0  0  0  0  0  0  0  0  0  0  0
   38.6124   34.2505   58.3711 H   0  0  0  0  0  0  0  0  0  0  0  0
   39.2468   31.8834   59.3542 H   0  0  0  0  0  0  0  0  0  0  0  0
   37.4320   31.8023   59.3505 H   0  0  0  0  0  0  0  0  0  0  0  0
   37.4875   32.6258   56.9788 H   0  0  0  0  0  0  0  0  0  0  0  0
   39.2997   32.3869   57.0431 H   0  0  0  0  0  0  0  0  0  0  0  0
   38.4102   30.6905   59.1462 H   0  0  0  0  0  0  0  0  0  0  0  0
   37.4251   29.3817   58.5885 H   0  0  0  0  0  0  0  0  0  0  0  0
   40.3331   29.8561   58.3972 H   0  0  0  0  0  0  0  0  0  0  0  0
   39.4579   28.3270   58.6252 H   0  0  0  0  0  0  0  0  0  0  0  0
   38.8788   27.5279   57.4065 H   0  0  0  0  0  0  0  0  0  0  0  0
   37.8799   25.4265   55.9429 H   0  0  0  0  0  0  0  0  0  0  0  0
   38.7707   24.8930   58.2660 H   0  0  0  0  0  0  0  0  0  0  0  0
   37.8294   24.0428   56.9942 H   0  0  0  0  0  0  0  0  0  0  0  0
   39.6235   23.9540   56.9942 H   0  0  0  0  0  0  0  0  0  0  0  0
   39.8809   26.6151   54.0329 H   0  0  0  0  0  0  0  0  0  0  0  0
   38.0355   27.0427   54.1085 H   0  0  0  0  0  0  0  0  0  0  0  0
   39.1785   28.3501   49.7582 H   0  0  0  0  0  0  0  0  0  0  0  0
   40.9220   31.4110   50.0990 H   0  0  0  0  0  0  0  0  0  0  0  0
   39.5540   30.7860   49.1390 H   0  0  0  0  0  0  0  0  0  0  0  0
   40.1467   31.4626   52.5184 H   0  0  0  0  0  0  0  0  0  0  0  0
   40.4040   30.8610   54.6010 H   0  0  0  0  0  0  0  0  0  0  0  0
  1  2  1  0
  2  3  1  0
  3  4  1  0
  4  5  1  0
  5  6  1  0
  6  7  1  0
  7  8  1  0
  8  9  2  0
  9 10  1  0
 10 11  1  0
 11 12  1  0
 12 13  1  0
  9 14  1  0
 14 15  1  0
 15 16  1  0
 16 17  1  0
 16 18  2  0
 18 19  1  0
 19 20  1  0
 19 21  2  0
 21 22  1  0
 22 23  1  0
 23 24  2  0
 24  5  1  0
 24  8  1  0
 12 10  1  0
 22 15  2  0
  1 25  1  0
  1 26  1  0
  1 27  1  0
  2 28  1  0
  2 29  1  0
  3 30  1  0
  3 31  1  0
  4 32  1  0
  4 33  1  0
  6 34  1  0
  6 35  1  0
  7 36  1  0
  7 37  1  0
 10 38  1  1
 12 39  1  6
 13 40  1  0
 13 41  1  0
 13 42  1  0
 14 43  1  0
 14 44  1  0
 18 45  1  0
 20 46  1  0
 20 47  1  0
 21 48  1  0
 23 49  1  0
M  CHG  1  23   1
M  END
>  <docking_score>  (38) 
-9.526

>  <plif_similarity>  (38) 
0.556

$$$$
DiffSBDD_9
     RDKit          3D

 61 62  0  0  0  0  0  0  0  0999 V2000
   39.8060   37.2810   62.7240 C   0  0  0  0  0  0  0  0  0  0  0  0
   39.4780   36.9080   61.4610 O   0  0  0  0  0  0  0  0  0  0  0  0
   38.9760   35.7460   61.0810 C   0  0  0  0  0  0  0  0  0  0  0  0
   39.7420   34.6160   60.8780 C   0  0  0  0  0  0  0  0  0  0  0  0
   39.4710   33.3960   60.3950 C   0  0  0  0  0  0  0  0  0  0  0  0
   38.3420   33.0850   59.6200 C   0  0  2  0  0  0  0  0  0  0  0  0
   38.3750   31.9560   58.8500 C   0  0  0  0  0  0  0  0  0  0  0  0
   38.3290   31.8310   57.4040 C   0  0  0  0  0  0  0  0  0  0  0  0
   37.8750   30.5430   56.9470 N   0  0  0  0  0  0  0  0  0  0  0  0
   38.5200   29.9850   55.9020 C   0  0  2  0  0  0  0  0  0  0  0  0
   39.0830   30.8910   54.9090 C   0  0  0  0  0  0  0  0  0  0  0  0
   39.5250   30.7190   53.7490 C   0  0  0  0  0  0  0  0  0  0  0  0
   39.8490   30.3860   52.5200 C   0  0  0  0  0  0  0  0  0  0  0  0
   39.4640   29.2140   52.2090 C   0  0  0  0  0  0  0  0  0  0  0  0
   39.5490   28.8810   50.7470 C   0  0  1  0  0  0  0  0  0  0  0  0
   40.3910   29.8860   49.9600 C   0  0  0  0  0  0  0  0  0  0  0  0
   39.7800   27.5140   50.7050 O   0  0  0  0  0  0  0  0  0  0  0  0
   39.0160   28.1800   53.0810 C   0  0  0  0  0  0  0  0  0  0  0  0
   38.6300   28.0530   54.3390 C   0  0  0  0  0  0  0  0  0  0  0  0
   37.8660   28.7710   55.2830 C   0  0  0  0  0  0  0  0  0  0  0  0
   37.2540   33.9880   59.4910 C   0  0  0  0  0  0  0  0  0  0  0  0
   36.7340   34.7990   60.6720 C   0  0  0  0  0  0  0  0  0  0  0  0
   37.5790   35.8340   61.0040 C   0  0  2  0  0  0  0  0  0  0  0  0
   36.9380   37.0900   60.4010 C   0  0  0  0  0  0  0  0  0  0  0  0
   36.5330   37.9700   61.0970 O   0  0  0  0  0  0  0  0  0  0  0  0
   36.8510   37.1990   59.1990 O   0  0  0  0  0  0  0  0  0  0  0  0
   39.2573   36.6570   63.4448 H   0  0  0  0  0  0  0  0  0  0  0  0
   40.8877   37.1511   62.8754 H   0  0  0  0  0  0  0  0  0  0  0  0
   39.5388   38.3373   62.8754 H   0  0  0  0  0  0  0  0  0  0  0  0
   40.7936   34.7435   61.1744 H   0  0  0  0  0  0  0  0  0  0  0  0
   40.3393   33.1214   59.7780 H   0  0  0  0  0  0  0  0  0  0  0  0
   39.2394   32.8535   61.3235 H   0  0  0  0  0  0  0  0  0  0  0  0
   37.7919   32.8040   60.5302 H   0  0  0  0  0  0  0  0  0  0  0  0
   39.3125   31.4574   59.1371 H   0  0  0  0  0  0  0  0  0  0  0  0
   37.3606   31.5910   59.0684 H   0  0  0  0  0  0  0  0  0  0  0  0
   37.6466   32.5990   57.0109 H   0  0  0  0  0  0  0  0  0  0  0  0
   39.3588   31.9565   57.0382 H   0  0  0  0  0  0  0  0  0  0  0  0
   37.9530   29.8900   57.7410 H   0  0  0  0  0  0  0  0  0  0  0  0
   36.9190   30.7100   56.6040 H   0  0  0  0  0  0  0  0  0  0  0  0
   39.4009   29.5951   56.4330 H   0  0  0  0  0  0  0  0  0  0  0  0
   38.2886   31.6390   54.7692 H   0  0  0  0  0  0  0  0  0  0  0  0
   40.0659   30.9937   55.3920 H   0  0  0  0  0  0  0  0  0  0  0  0
   39.3454   31.7680   53.4709 H   0  0  0  0  0  0  0  0  0  0  0  0
   39.8477   29.7156   54.0636 H   0  0  0  0  0  0  0  0  0  0  0  0
   40.3948   31.0497   51.8333 H   0  0  0  0  0  0  0  0  0  0  0  0
   38.6345   29.0286   50.1538 H   0  0  0  0  0  0  0  0  0  0  0  0
   40.9357   30.5361   50.6605 H   0  0  0  0  0  0  0  0  0  0  0  0
   41.1100   29.3456   49.3267 H   0  0  0  0  0  0  0  0  0  0  0  0
   39.7331   30.4992   49.3267 H   0  0  0  0  0  0  0  0  0  0  0  0
   40.1660   27.2720   49.8260 H   0  0  0  0  0  0  0  0  0  0  0  0
   38.1471   27.7833   52.5355 H   0  0  0  0  0  0  0  0  0  0  0  0
   40.0354   27.8228   53.2886 H   0  0  0  0  0  0  0  0  0  0  0  0
   38.1126   27.0825   54.3201 H   0  0  0  0  0  0  0  0  0  0  0  0
   39.5869   28.4215   54.7372 H   0  0  0  0  0  0  0  0  0  0  0  0
   36.9463   29.1069   54.7816 H   0  0  0  0  0  0  0  0  0  0  0  0
   37.7050   28.0720   56.1170 H   0  0  0  0  0  0  0  0  0  0  0  0
   37.5486   34.7175   58.7222 H   0  0  0  0  0  0  0  0  0  0  0  0
   36.4127   33.3090   59.2884 H   0  0  0  0  0  0  0  0  0  0  0  0
   35.7499   35.2151   60.4103 H   0  0  0  0  0  0  0  0  0  0  0  0
   36.6661   34.1266   61.5399 H   0  0  0  0  0  0  0  0  0  0  0  0
   37.6457   35.8256   62.1019 H   0  0  0  0  0  0  0  0  0  0  0  0
  1  2  1  0
  2  3  1  0
  3  4  2  0
  4  5  1  0
  5  6  1  0
  6  7  1  0
  7  8  1  0
  8  9  1  0
  9 10  1  0
 10 11  1  0
 11 12  1  0
 12 13  1  0
 13 14  2  0
 14 15  1  0
 15 16  1  0
 15 17  1  0
 14 18  1  0
 18 19  1  0
 19 20  1  0
  6 21  1  0
 21 22  1  0
 22 23  1  0
 23 24  1  0
 24 25  2  0
 24 26  1  0
 23  3  1  0
 20 10  1  0
  1 27  1  0
  1 28  1  0
  1 29  1  0
  4 30  1  0
  5 31  1  0
  5 32  1  0
  6 33  1  1
  7 34  1  0
  7 35  1  0
  8 36  1  0
  8 37  1  0
  9 38  1  0
  9 39  1  0
 10 40  1  1
 11 41  1  0
 11 42  1  0
 12 43  1  0
 12 44  1  0
 13 45  1  0
 15 46  1  6
 16 47  1  0
 16 48  1  0
 16 49  1  0
 17 50  1  0
 18 51  1  0
 18 52  1  0
 19 53  1  0
 19 54  1  0
 20 55  1  0
 20 56  1  0
 21 57  1  0
 21 58  1  0
 22 59  1  0
 22 60  1  0
 23 61  1  1
M  CHG  2   9   1  26  -1
M  END
>  <docking_score>  (39) 
-10.012

>  <plif_similarity>  (39) 
0.333

$$$$
