DiffSBDD_0_num_sample_50
     RDKit          3D

 32 35  0  0  0  0  0  0  0  0999 V2000
   12.0020    6.9310   -3.3850 C   0  0  0  0  0  0  0  0  0  0  0  0
    8.7820    5.9340   -9.9450 C   0  0  2  0  0  0  0  0  0  0  0  0
   10.1330    6.6080   -9.9200 N   0  0  0  0  0  0  0  0  0  0  0  0
   11.6240    8.1040   -6.7570 N   0  0  0  0  0  0  0  0  0  0  0  0
    5.9160    7.6920  -15.0900 C   0  0  0  0  0  0  0  0  0  0  0  0
    6.7490    8.2050  -13.0750 C   0  0  0  0  0  0  0  0  0  0  0  0
    7.7060    4.0830  -11.3010 C   0  0  0  0  0  0  0  0  0  0  0  0
    6.0470    5.5580  -13.1390 S   0  0  0  0  0  0  0  0  0  0  0  0
   11.9360    7.6480  -10.8560 O   0  0  0  0  0  0  0  0  0  0  0  0
   11.8800    7.9010   -4.3980 C   0  0  0  0  0  0  0  0  0  0  0  0
    8.9040    5.1020   -8.5970 C   0  0  0  0  0  0  0  0  0  0  0  0
   11.6630    7.3840   -5.6310 C   0  0  0  0  0  0  0  0  0  0  0  0
    9.2240    7.5340   -7.7240 C   0  0  0  0  0  0  0  0  0  0  0  0
    8.5450    5.2650  -11.2610 C   0  0  1  0  0  0  0  0  0  0  0  0
   11.4950    7.8430   -8.0580 C   0  0  0  0  0  0  0  0  0  0  0  0
    6.4330    4.0390  -10.7170 N   0  0  0  0  0  0  0  0  0  0  0  0
    8.1230    3.0150  -11.7910 O   0  0  0  0  0  0  0  0  0  0  0  0
   12.4830    9.1050   -0.6360 F   0  0  0  0  0  0  0  0  0  0  0  0
   11.6440    6.1820   -5.6940 O   0  0  0  0  0  0  0  0  0  0  0  0
   12.2060    7.3240   -2.1060 C   0  0  0  0  0  0  0  0  0  0  0  0
    7.6120    6.0480  -12.2540 C   0  0  2  0  0  0  0  0  0  0  0  0
    9.6550    6.0590   -7.6570 C   0  0  2  0  0  0  0  0  0  0  0  0
   12.1010    9.6690   -2.8650 C   0  0  0  0  0  0  0  0  0  0  0  0
    5.1530    8.4110  -15.6030 F   0  0  0  0  0  0  0  0  0  0  0  0
    6.7950    7.1810  -15.7510 F   0  0  0  0  0  0  0  0  0  0  0  0
   10.2900    7.0400   -8.5550 C   0  0  2  0  0  0  0  0  0  0  0  0
   10.5520    7.6080  -10.9020 C   0  0  0  0  0  0  0  0  0  0  0  0
   12.3360    6.4070   -1.0460 F   0  0  0  0  0  0  0  0  0  0  0  0
   12.2670    8.7180   -1.8170 C   0  0  0  0  0  0  0  0  0  0  0  0
    5.8310    7.2700  -13.7910 C   0  0  2  0  0  0  0  0  0  0  0  0
    7.8780    7.5430  -12.3680 C   0  0  0  0  0  0  0  0  0  0  0  0
   11.9630    9.2150   -4.1630 C   0  0  0  0  0  0  0  0  0  0  0  0
  1 20  2  0
  2 14  1  0
  2  3  1  0
  2 11  1  1
  3 26  1  0
  4 12  1  0
  6 31  1  0
  7 16  1  0
  8 21  1  0
 10 32  2  0
 10  1  1  0
 12 10  1  0
 22 13  1  1
 14  7  1  1
 15  4  1  0
 17  7  2  0
 19 12  2  0
 20 29  1  0
 20 28  1  0
 21 14  1  0
 22 11  1  0
 23 29  2  0
 24  5  1  0
 25  5  1  0
 26 15  1  1
 26 13  1  0
 26 22  1  0
 27  9  1  0
 27  3  1  0
 29 18  1  0
 30  5  1  6
 30  8  1  0
 30  6  1  0
 21 31  1  1
 32 23  1  0
M  END
>  <GenAI_Model>  (1) 
DiffSBDD

>  <Protein>  (1) 
generic_title2

>  <num_sample>  (1) 
50

$$$$
DiffSBDD_1_num_sample_50
     RDKit          3D

 36 41  0  0  0  0  0  0  0  0999 V2000
    9.9500    6.5780   -8.3600 N   0  0  0  0  0  0  0  0  0  0  0  0
    5.2420    3.7470  -11.9640 C   0  0  0  0  0  0  0  0  0  0  0  0
   11.8530    7.7960   -3.5800 C   0  0  0  0  0  0  0  0  0  0  0  0
   12.6910    6.2600   -1.8390 O   0  0  0  0  0  0  0  0  0  0  0  0
    9.7600    5.7460  -11.0800 C   0  0  0  0  0  0  0  0  0  0  0  0
    9.8160    8.1940  -10.1940 O   0  0  0  0  0  0  0  0  0  0  0  0
   11.6840    9.4190   -5.4920 C   0  0  0  0  0  0  0  0  0  0  0  0
    9.4720    6.7190   -6.8840 C   0  0  0  0  0  0  0  0  0  0  0  0
   13.7920    6.0280   -1.0970 C   0  0  0  0  0  0  0  0  0  0  0  0
   12.3390    7.5050   -2.2210 C   0  0  0  0  0  0  0  0  0  0  0  0
    8.8520    5.2150  -12.0820 C   0  0  0  0  0  0  0  0  0  0  0  0
    6.3430    7.1300  -13.8990 C   0  0  0  0  0  0  0  0  0  0  0  0
    8.1840    5.1610   -9.1770 C   0  0  0  0  0  0  0  0  0  0  0  0
   12.3120    9.9970   -3.3890 C   0  0  0  0  0  0  0  0  0  0  0  0
   12.3110   10.1980    0.3380 O   0  0  0  0  0  0  0  0  0  0  0  0
   11.9460    9.0400   -4.2210 C   0  0  0  0  0  0  0  0  0  0  0  0
   10.9980    6.4870  -11.5900 C   0  0  2  0  0  0  0  0  0  0  0  0
   11.0170    7.8000  -10.8890 C   0  0  0  0  0  0  0  0  0  0  0  0
    7.4720    4.9640  -11.6050 N   0  0  0  0  0  0  0  0  0  0  0  0
   10.5690    7.4440   -6.1050 C   0  0  0  0  0  0  0  0  0  0  0  0
   12.6270    8.7530   -0.0130 O   0  0  0  0  0  0  0  0  0  0  0  0
    9.5650    5.6310   -9.5280 C   0  0  0  0  0  0  0  0  0  0  0  0
   11.0490    8.6010   -6.6550 C   0  0  0  0  0  0  0  0  0  0  0  0
   12.5770    9.9970   -2.0010 C   0  0  0  0  0  0  0  0  0  0  0  0
    6.1780    6.2260  -15.0660 C   0  0  0  0  0  0  0  0  0  0  0  0
    9.9140    8.0510   -8.8680 C   0  0  2  0  0  0  0  0  0  0  0  0
   10.9870    6.5020  -13.0170 O   0  0  0  0  0  0  0  0  0  0  0  0
    6.1410    3.9900  -14.2140 C   0  0  1  0  0  0  0  0  0  0  0  0
   11.0700    6.7250   -4.6620 S   0  0  0  0  0  0  0  0  0  0  0  0
    7.0930    4.9720  -10.1370 C   0  0  0  0  0  0  0  0  0  0  0  0
   12.5190    8.7110   -1.4270 C   0  0  0  0  0  0  0  0  0  0  0  0
    5.6210    4.8240  -13.0340 C   0  0  2  0  0  0  0  0  0  0  0  0
   10.8350    8.9790   -8.0600 C   0  0  0  0  0  0  0  0  0  0  0  0
    6.6310    5.9370  -12.6590 C   0  0  2  0  0  0  0  0  0  0  0  0
    6.9120    4.9400  -15.0970 C   0  0  0  0  0  0  0  0  0  0  0  0
    6.9160    2.6570  -14.0410 C   0  0  0  0  0  0  0  0  0  0  0  0
  1  8  1  0
  3 10  2  0
  4  9  1  0
  5 22  2  0
  6 26  1  0
  7 16  1  0
 10  4  1  0
 10 31  1  0
 11 19  1  0
 11  5  1  0
 14 24  1  0
 16  3  1  0
 16 14  2  0
 17 27  1  6
 17  5  1  0
 17 18  1  0
 18  6  1  0
 19 30  1  0
 20  8  1  0
 20 29  1  0
 21 15  1  0
 22 13  1  0
 22  1  1  0
 23 20  1  0
 23  7  2  0
 24 31  2  0
 25 12  1  0
 26  1  1  0
 26 33  1  6
 28 36  1  1
 28 32  1  0
 29  3  1  0
 30 13  2  0
 31 21  1  0
 32 34  1  0
 32  2  1  1
 33 23  1  0
 34 12  1  0
 34 19  1  6
 35 25  1  0
 35 28  1  0
M  END
>  <GenAI_Model>  (2) 
DiffSBDD

>  <Protein>  (2) 
generic_title2

>  <num_sample>  (2) 
50

$$$$
DiffSBDD_2_num_sample_50
     RDKit          3D

 28 31  0  0  0  0  0  0  0  0999 V2000
    7.0800    5.1090  -12.6020 C   0  0  1  0  0  0  0  0  0  0  0  0
    9.3480    6.3420  -10.3520 C   0  0  0  0  0  0  0  0  0  0  0  0
    8.0720    8.4400  -11.8890 O   0  0  0  0  0  0  0  0  0  0  0  0
   11.5280    6.4300   -3.6170 C   0  0  0  0  0  0  0  0  0  0  0  0
   12.3450    9.5300   -5.7990 O   0  0  0  0  0  0  0  0  0  0  0  0
   12.4180    9.6750   -4.7450 C   0  0  0  0  0  0  0  0  0  0  0  0
    4.9750    7.6370  -16.3820 C   0  0  0  0  0  0  0  0  0  0  0  0
   11.6160    8.9480   -6.6310 C   0  0  0  0  0  0  0  0  0  0  0  0
    6.0900    7.3170  -15.2340 C   0  0  0  0  0  0  0  0  0  0  0  0
   12.2870    7.7500   -8.3790 O   0  0  0  0  0  0  0  0  0  0  0  0
   12.3280    8.5960   -4.0320 C   0  0  0  0  0  0  0  0  0  0  0  0
   12.2220    7.7680   -1.7410 C   0  0  0  0  0  0  0  0  0  0  0  0
   11.6260    7.8850   -7.2460 C   0  0  0  0  0  0  0  0  0  0  0  0
    8.5230    4.1670  -11.0590 C   0  0  0  0  0  0  0  0  0  0  0  0
    7.5650    6.3840  -12.2540 N   0  0  0  0  0  0  0  0  0  0  0  0
    8.7230    6.8810  -11.6480 C   0  0  2  0  0  0  0  0  0  0  0  0
    5.9750    6.0200  -14.6570 C   0  0  0  0  0  0  0  0  0  0  0  0
   11.6950    6.6140   -2.2660 C   0  0  0  0  0  0  0  0  0  0  0  0
    9.3040    4.7250   -8.9320 C   0  0  0  0  0  0  0  0  0  0  0  0
    8.6430    5.1010  -10.0840 N   0  0  0  0  0  0  0  0  0  0  0  0
   11.5330    6.7660   -6.0440 C   0  0  0  0  0  0  0  0  0  0  0  0
    9.4740    5.7320   -7.9250 C   0  0  0  0  0  0  0  0  0  0  0  0
   10.6580    5.8900   -7.2170 N   0  0  0  0  0  0  0  0  0  0  0  0
   12.5510    8.8100   -2.7080 C   0  0  0  0  0  0  0  0  0  0  0  0
   11.7860    7.4480   -4.6230 C   0  0  0  0  0  0  0  0  0  0  0  0
    7.4650    5.7820  -13.9330 C   0  0  2  0  0  0  0  0  0  0  0  0
    8.4560    6.3400   -7.4780 O   0  0  0  0  0  0  0  0  0  0  0  0
    7.8230    3.9340  -12.1630 C   0  0  0  0  0  0  0  0  0  0  0  0
  1 15  1  0
  1 28  1  1
  2 20  1  0
 16  3  1  1
  4 18  2  0
  5  6  1  0
  6 11  2  0
  7  9  1  0
  8  5  1  0
  9 17  1  0
 10 13  1  0
 11 24  1  0
 13  8  2  0
 13 21  1  0
 14 20  1  0
 15 16  1  0
 16  2  1  0
 26 17  1  6
 18 12  1  0
 19 22  1  0
 20 19  1  0
 21 25  2  0
 22 27  2  0
 22 23  1  0
 23 21  1  0
 24 12  2  0
 25 11  1  0
 25  4  1  0
 26  1  1  0
 26 15  1  0
 28 14  1  0
M  END
>  <GenAI_Model>  (3) 
DiffSBDD

>  <Protein>  (3) 
generic_title2

>  <num_sample>  (3) 
50

$$$$
DiffSBDD_3_num_sample_50
     RDKit          3D

 29 32  0  0  0  0  0  0  0  0999 V2000
   11.9480    9.4940   -3.2180 C   0  0  0  0  0  0  0  0  0  0  0  0
    6.0150    4.7050  -13.7830 C   0  0  0  0  0  0  0  0  0  0  0  0
   12.3380    7.7460   -1.4660 C   0  0  0  0  0  0  0  0  0  0  0  0
   11.5560    5.7540   -1.9190 F   0  0  0  0  0  0  0  0  0  0  0  0
    9.5000    8.0210   -9.0110 C   0  0  0  0  0  0  0  0  0  0  0  0
    9.5200    7.0090   -7.9570 C   0  0  0  0  0  0  0  0  0  0  0  0
    7.0840    3.9140  -13.4500 C   0  0  0  0  0  0  0  0  0  0  0  0
    7.2230    6.6680  -13.2710 C   0  0  0  0  0  0  0  0  0  0  0  0
   12.0870    7.9430   -6.7040 C   0  0  1  0  0  0  0  0  0  0  0  0
    9.8750    6.9290   -6.5260 C   0  0  0  0  0  0  0  0  0  0  0  0
    9.4940    6.4550  -12.3030 C   0  0  0  0  0  0  0  0  0  0  0  0
   11.3860    6.7490   -6.2150 C   0  0  2  0  0  0  0  0  0  0  0  0
   12.2310    6.7660   -2.4510 C   0  0  1  0  0  0  0  0  0  0  0  0
   11.5190    6.2960   -4.8540 C   0  0  0  0  0  0  0  0  0  0  0  0
    7.8860    5.4190   -8.8870 O   0  0  0  0  0  0  0  0  0  0  0  0
   11.9980    8.0770   -8.1740 C   0  0  0  0  0  0  0  0  0  0  0  0
    9.0870    4.6750   -9.0380 C   0  0  0  0  0  0  0  0  0  0  0  0
   11.8610    7.1920   -3.7930 C   0  0  0  0  0  0  0  0  0  0  0  0
    8.3620    5.8700  -12.9530 C   0  0  0  0  0  0  0  0  0  0  0  0
    6.0220    6.0700  -13.5620 C   0  0  0  0  0  0  0  0  0  0  0  0
    9.3900    6.7630  -10.9670 N   0  0  0  0  0  0  0  0  0  0  0  0
   12.2380    9.1040   -1.8150 C   0  0  0  0  0  0  0  0  0  0  0  0
    8.2620    4.4720  -13.0540 C   0  0  0  0  0  0  0  0  0  0  0  0
   11.7980   10.6480   -3.3620 O   0  0  0  0  0  0  0  0  0  0  0  0
   10.6490    6.6290  -12.8610 O   0  0  0  0  0  0  0  0  0  0  0  0
    9.8470    7.9430  -10.2960 C   0  0  0  0  0  0  0  0  0  0  0  0
   11.7090    8.7410   -5.5320 C   0  0  0  0  0  0  0  0  0  0  0  0
   11.8980    8.4360   -4.1240 C   0  0  1  0  0  0  0  0  0  0  0  0
    9.0550    5.6280   -8.1950 C   0  0  1  0  0  0  0  0  0  0  0  0
  1 22  1  0
  2 20  2  0
  2  7  1  0
  6  5  1  0
  6 10  1  0
  7 23  2  0
  8 19  2  0
  9 16  1  6
  9 12  1  0
  9 27  1  0
 11 21  1  0
 12 10  1  1
 12 14  1  0
 13  4  1  1
 13  3  1  0
 14 18  2  0
 15 29  1  0
 17 15  1  0
 17 29  1  0
 18 13  1  0
 19 11  1  0
 20  8  1  0
 21 26  1  0
 22  3  2  0
 23 19  1  0
 24  1  2  0
 25 11  2  0
 26  5  1  0
 28 27  1  6
 28 18  1  0
 28  1  1  0
 29  6  1  6
M  END
>  <GenAI_Model>  (4) 
DiffSBDD

>  <Protein>  (4) 
generic_title2

>  <num_sample>  (4) 
50

$$$$
DiffSBDD_4_num_sample_50
     RDKit          3D

 20 21  0  0  0  0  0  0  0  0999 V2000
    7.8910    3.2130  -14.5470 C   0  0  0  0  0  0  0  0  0  0  0  0
   11.1790    7.8830  -10.5230 C   0  0  0  0  0  0  0  0  0  0  0  0
    9.0590    6.1740   -7.9540 C   0  0  0  0  0  0  0  0  0  0  0  0
    5.3170    6.7260  -15.3570 C   0  0  0  0  0  0  0  0  0  0  0  0
   10.6340    6.6280  -11.4280 C   0  0  0  0  0  0  0  0  0  0  0  0
    6.8470    3.5990  -14.8980 O   0  0  0  0  0  0  0  0  0  0  0  0
    9.4150    6.3410  -11.6430 N   0  0  0  0  0  0  0  0  0  0  0  0
    8.1810    8.7100  -12.0370 O   0  0  0  0  0  0  0  0  0  0  0  0
    9.2940    6.5660   -9.5110 C   0  0  2  0  0  0  0  0  0  0  0  0
   10.3350    7.6450   -9.1710 C   0  0  1  0  0  0  0  0  0  0  0  0
    8.8670    4.2730  -13.9950 C   0  0  0  0  0  0  0  0  0  0  0  0
    8.6480    6.1520  -10.2310 C   0  0  0  0  0  0  0  0  0  0  0  0
    9.9680    6.3450   -5.7930 O   0  0  0  0  0  0  0  0  0  0  0  0
    7.5520    7.6990  -12.8350 C   0  0  0  0  0  0  0  0  0  0  0  0
    6.2740    7.5990  -13.5560 O   0  0  0  0  0  0  0  0  0  0  0  0
   11.1070    7.4280   -7.8980 C   0  0  0  0  0  0  0  0  0  0  0  0
   10.1650    6.6600   -7.0810 C   0  0  2  0  0  0  0  0  0  0  0  0
    8.3980    6.4670  -12.7320 C   0  0  0  0  0  0  0  0  0  0  0  0
    8.1590    5.6960  -13.7750 C   0  0  0  0  0  0  0  0  0  0  0  0
    6.4420    6.4510  -14.3940 C   0  0  0  0  0  0  0  0  0  0  0  0
  1 11  1  0
  3 17  1  0
  4 20  1  0
  5  2  1  0
  6  1  2  0
  7  5  1  0
  7 12  1  0
  9 12  1  1
  9 10  1  0
  9  3  1  0
 10  2  1  6
 10 16  1  0
 11 19  1  0
 14 18  1  0
 14  8  2  0
 15 14  1  0
 16 17  1  0
 17 13  1  1
 18  7  1  0
 19 18  2  3
 20 15  1  0
M  END
>  <GenAI_Model>  (5) 
DiffSBDD

>  <Protein>  (5) 
generic_title2

>  <num_sample>  (5) 
50

$$$$
DiffSBDD_5_num_sample_50
     RDKit          3D

 29 32  0  0  0  0  0  0  0  0999 V2000
    8.3420    6.8540  -11.7250 C   0  0  1  0  0  0  0  0  0  0  0  0
   11.6780    7.3110   -3.8740 C   0  0  0  0  0  0  0  0  0  0  0  0
    8.5650    8.5560  -11.9750 C   0  0  0  0  0  0  0  0  0  0  0  0
    7.4390    5.7620   -9.5680 O   0  0  0  0  0  0  0  0  0  0  0  0
   10.3330    6.8810   -8.9960 C   0  0  1  0  0  0  0  0  0  0  0  0
   10.5540    6.5840  -12.4780 O   0  0  0  0  0  0  0  0  0  0  0  0
    9.2630    5.9250  -12.8500 C   0  0  2  0  0  0  0  0  0  0  0  0
   12.8410    9.1750   -4.3620 C   0  0  0  0  0  0  0  0  0  0  0  0
    9.7330    5.6850   -8.6120 C   0  0  1  0  0  0  0  0  0  0  0  0
    6.6020    5.9720  -18.0510 O   0  0  0  0  0  0  0  0  0  0  0  0
    7.6080    5.5250  -15.9010 C   0  0  0  0  0  0  0  0  0  0  0  0
    9.3950    7.8980   -9.0530 C   0  0  0  0  0  0  0  0  0  0  0  0
    7.4170    6.0340  -17.1650 N   0  0  0  0  0  0  0  0  0  0  0  0
    8.3390    5.6400  -10.6320 C   0  0  0  0  0  0  0  0  0  0  0  0
    8.6720    6.3950  -14.0090 N   0  0  0  0  0  0  0  0  0  0  0  0
   11.0680    7.0430   -5.1960 C   0  0  0  0  0  0  0  0  0  0  0  0
   12.6660    7.9710   -1.5410 C   0  0  0  0  0  0  0  0  0  0  0  0
    7.2540    7.5600  -12.4290 O   0  0  0  0  0  0  0  0  0  0  0  0
   12.2500    8.5740   -3.6020 C   0  0  0  0  0  0  0  0  0  0  0  0
   12.1980    6.7350   -1.7010 C   0  0  0  0  0  0  0  0  0  0  0  0
    8.8410    5.4050  -15.2400 C   0  0  0  0  0  0  0  0  0  0  0  0
   11.8230    6.4550   -2.8360 C   0  0  0  0  0  0  0  0  0  0  0  0
   11.6760    9.8900   -5.4170 C   0  0  0  0  0  0  0  0  0  0  0  0
   12.7630    8.9730   -2.2710 C   0  0  0  0  0  0  0  0  0  0  0  0
   10.7980    7.6460   -6.1920 C   0  0  1  0  0  0  0  0  0  0  0  0
   11.3970    8.9190   -6.6490 C   0  0  0  0  0  0  0  0  0  0  0  0
    9.5540    4.6210  -10.0790 S   0  0  0  0  0  0  0  0  0  0  0  0
    6.5970    5.1980  -15.2050 O   0  0  0  0  0  0  0  0  0  0  0  0
   10.0800    6.8240   -7.2940 C   0  0  1  0  0  0  0  0  0  0  0  0
  1 14  1  1
  2 19  2  0
  2 22  1  0
  3  1  1  0
  5 12  1  6
  5  9  1  0
  5 29  1  0
  7  6  1  6
  7  1  1  0
  8 19  1  0
  9 27  1  1
  9 29  1  0
 10 13  2  0
 11 21  1  0
 11 28  2  0
 13 11  1  0
 14 27  1  0
 14  4  2  0
 15  7  1  0
 16  2  1  0
 18  3  1  0
 18  1  1  0
 19 24  1  0
 20 17  1  0
 21 15  1  0
 22 20  2  0
 23  8  1  0
 24 17  2  0
 25 26  1  6
 25 16  1  0
 26 23  1  0
 29 25  1  1
M  END
>  <GenAI_Model>  (6) 
DiffSBDD

>  <Protein>  (6) 
generic_title2

>  <num_sample>  (6) 
50

$$$$
DiffSBDD_6_num_sample_50
     RDKit          3D

 24 24  0  0  0  0  0  0  0  0999 V2000
    6.3680    6.3480  -15.4680 C   0  0  0  0  0  0  0  0  0  0  0  0
    6.8460    4.4610  -18.3210 C   0  0  0  0  0  0  0  0  0  0  0  0
    8.3730    3.4100  -13.7400 O   0  0  0  0  0  0  0  0  0  0  0  0
    9.7130    7.2630   -8.6440 C   0  0  1  0  0  0  0  0  0  0  0  0
    6.3660    4.2750  -11.0140 O   0  0  0  0  0  0  0  0  0  0  0  0
    7.5650    3.0860  -12.6230 C   0  0  0  0  0  0  0  0  0  0  0  0
    7.0690    5.5920  -13.2580 O   0  0  0  0  0  0  0  0  0  0  0  0
    9.7280    6.2450   -7.6800 C   0  0  0  0  0  0  0  0  0  0  0  0
    6.4770    5.4980  -17.4750 C   0  0  0  0  0  0  0  0  0  0  0  0
    6.0160    7.3500  -13.6250 O   0  0  0  0  0  0  0  0  0  0  0  0
    8.5860    5.1840  -11.5390 C   0  0  2  0  0  0  0  0  0  0  0  0
    6.4540    6.4770  -14.1340 C   0  0  0  0  0  0  0  0  0  0  0  0
    9.5080    7.0280   -9.9310 N   0  0  0  0  0  0  0  0  0  0  0  0
    9.5690    8.0240  -10.9530 C   0  0  0  0  0  0  0  0  0  0  0  0
    6.9280    5.3730  -16.1180 N   0  0  0  0  0  0  0  0  0  0  0  0
    7.6500    4.0080  -11.4740 C   0  0  1  0  0  0  0  0  0  0  0  0
    8.5720    6.1420   -7.1300 F   0  0  0  0  0  0  0  0  0  0  0  0
    5.5240    7.5240  -16.4510 S   0  0  0  0  0  0  0  0  0  0  0  0
   10.6870    5.6620   -7.7010 F   0  0  0  0  0  0  0  0  0  0  0  0
    8.6600    9.1510  -10.5710 O   0  0  0  0  0  0  0  0  0  0  0  0
    5.7460    6.6030  -17.8240 C   0  0  0  0  0  0  0  0  0  0  0  0
    9.0690    8.1210   -8.0160 O   0  0  0  0  0  0  0  0  0  0  0  0
    9.2350    5.6750  -10.2360 C   0  0  0  0  0  0  0  0  0  0  0  0
    7.9560    6.1920  -12.4540 N   0  0  0  0  0  0  0  0  0  0  0  0
  1 12  1  0
  2  9  1  0
  3  6  1  0
  4 22  1  1
  4  8  1  0
  6 16  1  0
  7 24  1  0
  8 17  1  0
  9 15  1  0
 11 16  1  0
 11 23  1  1
 12 10  2  0
 12  7  1  0
 13  4  1  0
 14 20  1  0
 14 13  1  0
 15  1  2  0
 16  5  1  6
 18  1  1  0
 19  8  1  0
 21  9  2  0
 21 18  1  0
 23 13  1  0
 24 11  1  0
M  END
>  <GenAI_Model>  (7) 
DiffSBDD

>  <Protein>  (7) 
generic_title2

>  <num_sample>  (7) 
50

$$$$
DiffSBDD_7_num_sample_50
     RDKit          3D

 27 31  0  0  0  0  0  0  0  0999 V2000
    6.5800    5.4100  -12.5520 C   0  0  1  0  0  0  0  0  0  0  0  0
   11.8410    7.2210   -3.6680 C   0  0  0  0  0  0  0  0  0  0  0  0
   12.2580    6.6980   -2.5160 C   0  0  0  0  0  0  0  0  0  0  0  0
    7.7460    3.3300  -11.9340 C   0  0  0  0  0  0  0  0  0  0  0  0
   10.3720    7.3550   -7.4140 C   0  0  2  0  0  0  0  0  0  0  0  0
   12.5680    7.5100   -1.4460 C   0  0  0  0  0  0  0  0  0  0  0  0
    8.4640    7.7010  -12.2290 C   0  0  0  0  0  0  0  0  0  0  0  0
   10.3960    6.8630   -8.9990 C   0  0  2  0  0  0  0  0  0  0  0  0
   10.0360    7.7170  -10.3880 C   0  0  2  0  0  0  0  0  0  0  0  0
   11.7120    8.8020   -7.7020 C   0  0  0  0  0  0  0  0  0  0  0  0
   11.8090    9.2770   -5.0640 C   0  0  0  0  0  0  0  0  0  0  0  0
   12.4880    8.9040   -1.5770 C   0  0  0  0  0  0  0  0  0  0  0  0
    7.2540    7.9380  -12.6880 C   0  0  0  0  0  0  0  0  0  0  0  0
    7.0810    4.7150  -13.6950 C   0  0  2  0  0  0  0  0  0  0  0  0
    5.5570    4.7380  -13.2690 C   0  0  0  0  0  0  0  0  0  0  0  0
    9.3050    8.7340   -9.8290 O   0  0  0  0  0  0  0  0  0  0  0  0
   12.2220    9.3340   -2.7600 C   0  0  0  0  0  0  0  0  0  0  0  0
   11.5220    7.6910   -6.6710 C   0  0  1  0  0  0  0  0  0  0  0  0
    9.4650    5.5910   -9.0320 C   0  0  0  0  0  0  0  0  0  0  0  0
    6.8950    4.3410  -11.2220 C   0  0  0  0  0  0  0  0  0  0  0  0
    7.9310    3.5890  -13.4750 C   0  0  0  0  0  0  0  0  0  0  0  0
   11.8890    8.9700   -6.4280 C   0  0  1  0  0  0  0  0  0  0  0  0
    9.3450    7.0340  -11.3430 C   0  0  0  0  0  0  0  0  0  0  0  0
    6.3130    6.7820  -12.9960 C   0  0  0  0  0  0  0  0  0  0  0  0
    8.5730    5.5090   -7.8890 C   0  0  0  0  0  0  0  0  0  0  0  0
   11.9520    8.5710   -3.8880 C   0  0  0  0  0  0  0  0  0  0  0  0
   11.2120    6.4160   -6.5340 C   0  0  0  0  0  0  0  0  0  0  0  0
  1 24  1  0
  1 20  1  1
  2  3  2  0
  3  6  1  0
  4 20  1  0
  5  8  1  0
  5 18  1  0
  5 27  1  1
  7 23  1  0
  8 19  1  1
  9 16  1  1
  9  8  1  0
 10 22  1  0
 11 26  1  0
 12  6  2  0
 13  7  1  0
 14 21  1  1
 14 15  1  0
 14  1  1  0
 15  1  1  0
 17 12  1  0
 18 10  1  6
 18 27  1  0
 18 22  1  0
 19 25  1  0
 21  4  1  0
 22 11  1  1
 23  9  1  0
 24 13  2  3
 26  2  1  0
 26 17  2  0
M  END
>  <GenAI_Model>  (8) 
DiffSBDD

>  <Protein>  (8) 
generic_title2

>  <num_sample>  (8) 
50

$$$$
DiffSBDD_8_num_sample_50
     RDKit          3D

 35 40  0  0  0  0  0  0  0  0999 V2000
   11.7380    8.7390   -5.1510 C   0  0  2  0  0  0  0  0  0  0  0  0
    9.6790    6.8590  -12.6770 O   0  0  0  0  0  0  0  0  0  0  0  0
   12.9380    8.8260   -2.6040 C   0  0  1  0  0  0  0  0  0  0  0  0
   12.8520    6.9210   -0.9950 N   0  0  0  0  0  0  0  0  0  0  0  0
    8.7930    4.4370  -12.8790 F   0  0  0  0  0  0  0  0  0  0  0  0
    7.9270    5.4240  -12.9740 C   0  0  2  0  0  0  0  0  0  0  0  0
    6.5440    5.0980  -12.4560 C   0  0  0  0  0  0  0  0  0  0  0  0
    8.8760    4.9030   -9.7930 C   0  0  0  0  0  0  0  0  0  0  0  0
   10.5300    6.7680   -8.7000 C   0  0  0  0  0  0  0  0  0  0  0  0
    6.0900    3.7990  -11.8410 C   0  0  0  0  0  0  0  0  0  0  0  0
    5.1570    7.4460  -15.7940 O   0  0  0  0  0  0  0  0  0  0  0  0
   11.9120    6.4350   -1.9330 C   0  0  2  0  0  0  0  0  0  0  0  0
    6.4950    6.2690  -16.9130 O   0  0  0  0  0  0  0  0  0  0  0  0
   13.4610    8.9680   -0.3390 O   0  0  0  0  0  0  0  0  0  0  0  0
    7.8070    5.9980  -14.3410 O   0  0  0  0  0  0  0  0  0  0  0  0
    8.6910    5.9180  -10.5890 N   0  0  0  0  0  0  0  0  0  0  0  0
   11.4240    7.9000   -9.0050 C   0  0  0  0  0  0  0  0  0  0  0  0
    6.0500    6.3850  -15.8960 N   0  0  0  0  0  0  0  0  0  0  0  0
    5.8460    5.7910  -13.7230 N   0  0  0  0  0  0  0  0  0  0  0  0
    6.5670    6.0760  -14.7000 C   0  0  0  0  0  0  0  0  0  0  0  0
    9.5050    6.7660   -9.8870 C   0  0  0  0  0  0  0  0  0  0  0  0
    9.2560    8.3530  -10.5900 O   0  0  0  0  0  0  0  0  0  0  0  0
   12.9450    8.2810   -1.1590 C   0  0  0  0  0  0  0  0  0  0  0  0
   11.6710    9.8460   -4.2620 C   0  0  0  0  0  0  0  0  0  0  0  0
   12.0290    7.5990   -3.0740 C   0  0  2  0  0  0  0  0  0  0  0  0
   11.0170    7.0720   -1.2680 O   0  0  0  0  0  0  0  0  0  0  0  0
    5.5850    5.0240  -11.2580 C   0  0  0  0  0  0  0  0  0  0  0  0
   11.4040    7.7260   -6.4760 C   0  0  2  0  0  0  0  0  0  0  0  0
   11.3150    6.7800   -5.4580 C   0  0  0  0  0  0  0  0  0  0  0  0
    8.3910    6.4950  -12.0750 C   0  0  1  0  0  0  0  0  0  0  0  0
    9.2310    4.8060   -8.4200 C   0  0  0  0  0  0  0  0  0  0  0  0
   12.3740    9.9250   -3.1340 C   0  0  0  0  0  0  0  0  0  0  0  0
   11.8690    8.3400   -7.6580 C   0  0  0  0  0  0  0  0  0  0  0  0
   11.6070    7.4260   -4.2940 C   0  0  2  0  0  0  0  0  0  0  0  0
   10.1920    5.7570   -8.0410 C   0  0  0  0  0  0  0  0  0  0  0  0
  1 34  1  0
  1 24  1  1
 30  2  1  6
  3 32  1  1
  3 23  1  0
  6  5  1  6
  6  7  1  0
  6 30  1  0
  7 10  1  0
  7 27  1  0
  8 31  1  0
  9 35  2  0
 10 27  1  0
 12 26  1  1
 12  4  1  0
 13 18  1  0
 15  6  1  0
 16 21  1  0
 16  8  1  0
 17  9  1  0
 17 33  1  0
 18 11  2  0
 18 20  1  0
 19  7  1  0
 20 15  1  0
 20 19  2  0
 21  9  1  0
 22 21  2  0
 23  4  1  0
 23 14  2  0
 24 32  1  0
 25  3  1  0
 25 12  1  6
 28 29  1  0
 28  1  1  0
 34 29  1  6
 30 16  1  0
 31 35  1  0
 28 33  1  6
 34 25  1  0
M  CHG  2  13  -1  18   1
M  END
>  <GenAI_Model>  (9) 
DiffSBDD

>  <Protein>  (9) 
generic_title2

>  <num_sample>  (9) 
50

$$$$
DiffSBDD_9_num_sample_50
     RDKit          3D

 23 25  0  0  0  0  0  0  0  0999 V2000
   11.9270    7.6260   -4.7200 C   0  0  2  0  0  0  0  0  0  0  0  0
   12.1670    9.8580   -1.9560 F   0  0  0  0  0  0  0  0  0  0  0  0
    9.9530    9.2380  -10.8600 C   0  0  0  0  0  0  0  0  0  0  0  0
   10.8470    5.6750   -5.9250 C   0  0  0  0  0  0  0  0  0  0  0  0
    8.0040    8.6830  -12.3100 C   0  0  0  0  0  0  0  0  0  0  0  0
    9.4570    7.0500   -8.9900 C   0  0  0  0  0  0  0  0  0  0  0  0
    8.9780    6.9630  -10.3570 C   0  0  0  0  0  0  0  0  0  0  0  0
   12.0960    8.2840   -0.1860 F   0  0  0  0  0  0  0  0  0  0  0  0
   12.8400    6.5900   -2.2660 F   0  0  0  0  0  0  0  0  0  0  0  0
   11.7500    6.1890   -4.7790 C   0  0  0  0  0  0  0  0  0  0  0  0
    9.1900    8.0830  -11.4080 C   0  0  0  0  0  0  0  0  0  0  0  0
   11.6440    8.2490   -3.5020 O   0  0  0  0  0  0  0  0  0  0  0  0
    9.3890    6.2690   -7.8340 C   0  0  0  0  0  0  0  0  0  0  0  0
   10.7260    7.0510   -1.7950 F   0  0  0  0  0  0  0  0  0  0  0  0
   11.9490    7.5810   -2.2520 C   0  0  0  0  0  0  0  0  0  0  0  0
   10.6780    6.2660   -7.1980 C   0  0  1  0  0  0  0  0  0  0  0  0
   10.7210    9.1150   -9.6010 C   0  0  0  0  0  0  0  0  0  0  0  0
   12.5410    8.6920   -1.4050 C   0  0  0  0  0  0  0  0  0  0  0  0
   11.0270    7.6660   -7.2230 C   0  0  1  0  0  0  0  0  0  0  0  0
   10.3830    8.0700   -8.6550 C   0  0  0  0  0  0  0  0  0  0  0  0
   13.9070    8.6380   -1.5230 F   0  0  0  0  0  0  0  0  0  0  0  0
    8.3780    5.7390   -7.1660 C   0  0  0  0  0  0  0  0  0  0  0  0
   11.0570    8.6250   -5.9600 S   0  0  0  0  0  0  0  0  0  0  0  0
  1 12  1  1
  2 18  1  0
  3 17  2  0
  4 10  1  0
  5 11  1  0
  6 20  2  0
  6 13  1  0
  7  6  1  0
  9 15  1  0
 10  1  1  0
 11  3  1  0
 11  7  2  0
 12 15  1  0
 13 16  1  0
 13 22  2  0
 15 14  1  0
 15 18  1  0
 16  4  1  1
 17 20  1  0
 18  8  1  0
 19 20  1  0
 19 16  1  0
 19 23  1  1
 21 18  1  0
 23  1  1  0
M  END
>  <GenAI_Model>  (10) 
DiffSBDD

>  <Protein>  (10) 
generic_title2

>  <num_sample>  (10) 
50

$$$$
DiffSBDD_10_num_sample_50
     RDKit          3D

 34 35  0  0  0  0  0  0  0  0999 V2000
    6.3520    4.0810  -12.8840 C   0  0  2  0  0  0  0  0  0  0  0  0
   11.3800    6.6080   -2.3600 C   0  0  0  0  0  0  0  0  0  0  0  0
   10.7140    8.3390   -6.5990 C   0  0  0  0  0  0  0  0  0  0  0  0
   10.6260    7.6490  -10.1060 C   0  0  1  0  0  0  0  0  0  0  0  0
    7.1970    5.6450  -12.7670 C   0  0  2  0  0  0  0  0  0  0  0  0
   11.8090    8.4190   -3.8140 N   0  0  0  0  0  0  0  0  0  0  0  0
   10.5330    6.3220  -12.1680 N   0  0  0  0  0  0  0  0  0  0  0  0
    8.9980    6.3230  -11.5110 C   0  0  1  0  0  0  0  0  0  0  0  0
    6.9220    2.5810  -13.8100 S   0  0  0  0  0  0  0  0  0  0  0  0
   12.9300    6.2720   -1.6260 C   0  0  0  0  0  0  0  0  0  0  0  0
    7.3420    2.7880  -15.6040 S   0  0  0  0  0  0  0  0  0  0  0  0
    7.4780    4.4140  -10.0890 C   0  0  0  0  0  0  0  0  0  0  0  0
   11.9890    9.9990   -1.8260 O   0  0  0  0  0  0  0  0  0  0  0  0
    5.6690    1.7850  -13.6380 O   0  0  0  0  0  0  0  0  0  0  0  0
    6.0210    5.4380  -13.5570 C   0  0  2  0  0  0  0  0  0  0  0  0
   10.1440    6.4290   -7.0160 C   0  0  0  0  0  0  0  0  0  0  0  0
   11.2690    7.1400  -11.2620 C   0  0  0  0  0  0  0  0  0  0  0  0
   13.6090    8.4350   -0.8960 N   0  0  0  0  0  0  0  0  0  0  0  0
   11.0800    6.6120   -4.7720 N   0  0  0  0  0  0  0  0  0  0  0  0
   13.9710    7.0600   -0.5410 C   0  0  0  0  0  0  0  0  0  0  0  0
    8.1110    8.7880  -11.9530 C   0  0  0  0  0  0  0  0  0  0  0  0
    7.0210    4.0640  -11.5290 C   0  0  0  0  0  0  0  0  0  0  0  0
    8.1470    6.0180  -14.0290 C   0  0  0  0  0  0  0  0  0  0  0  0
   11.1450    8.0740   -9.2080 C   0  0  0  0  0  0  0  0  0  0  0  0
   10.6130    7.0340   -6.0450 C   0  0  0  0  0  0  0  0  0  0  0  0
    5.2890    6.3930  -13.3910 O   0  0  0  0  0  0  0  0  0  0  0  0
   11.5510    7.2210   -3.5990 C   0  0  0  0  0  0  0  0  0  0  0  0
    7.7800    2.1150  -13.0930 O   0  0  0  0  0  0  0  0  0  0  0  0
   12.5900    7.3970  -11.6370 F   0  0  0  0  0  0  0  0  0  0  0  0
    9.4260    5.6490   -7.7170 N   0  0  0  0  0  0  0  0  0  0  0  0
   12.7330    8.9400   -2.0240 C   0  0  0  0  0  0  0  0  0  0  0  0
    9.0380    7.7430  -11.0240 C   0  0  2  0  0  0  0  0  0  0  0  0
    7.6840    6.3690  -11.6870 O   0  0  0  0  0  0  0  0  0  0  0  0
   11.0290    8.5650   -8.0380 C   0  0  0  0  0  0  0  0  0  0  0  0
  1  5  1  0
  1 22  1  1
  2 10  1  0
  3 25  1  0
  4 24  1  6
  5 23  1  6
  5 33  1  0
  6 27  2  0
  7  8  1  0
  7 17  1  0
  8 33  1  6
  8 32  1  0
  9 14  2  0
  9 28  2  0
  9  1  1  0
 10 20  1  0
 11  9  1  0
 15 26  1  1
 15  1  1  0
 15  5  1  0
 16 25  1  0
 17 29  1  0
 17  4  1  0
 18 20  1  0
 19 27  1  0
 22 12  1  0
 24 34  1  0
 25 19  2  3
 27  2  1  0
 30 16  1  0
 31 13  1  0
 31 18  1  0
 32 21  1  6
 32  4  1  0
 34  3  2  3
M  END
>  <GenAI_Model>  (11) 
DiffSBDD

>  <Protein>  (11) 
generic_title2

>  <num_sample>  (11) 
50

$$$$
DiffSBDD_11_num_sample_50
     RDKit          3D

 33 36  0  0  0  0  0  0  0  0999 V2000
   10.3950    8.1740   -9.7320 C   0  0  0  0  0  0  0  0  0  0  0  0
   11.9250    9.2860   -3.6760 C   0  0  0  0  0  0  0  0  0  0  0  0
    8.7800    5.7410   -9.0610 C   0  0  1  0  0  0  0  0  0  0  0  0
    7.2330    7.2440  -12.9760 O   0  0  0  0  0  0  0  0  0  0  0  0
   11.1940    6.5390   -6.1960 C   0  0  0  0  0  0  0  0  0  0  0  0
    9.0600    4.4260   -8.6140 O   0  0  0  0  0  0  0  0  0  0  0  0
    5.5030    5.8320  -12.6930 C   0  0  0  0  0  0  0  0  0  0  0  0
    6.2100    6.5340  -13.8010 C   0  0  2  0  0  0  0  0  0  0  0  0
   11.9160    8.5990   -7.9270 C   0  0  0  0  0  0  0  0  0  0  0  0
    6.1720    6.1430  -16.3140 C   0  0  0  0  0  0  0  0  0  0  0  0
   10.1920    7.1580  -10.9080 C   0  0  0  0  0  0  0  0  0  0  0  0
   12.0790    9.4230   -2.3340 C   0  0  0  0  0  0  0  0  0  0  0  0
   12.4110    8.2130   -1.5330 C   0  0  0  0  0  0  0  0  0  0  0  0
    6.6060    5.5940  -14.8460 C   0  0  0  0  0  0  0  0  0  0  0  0
   11.2360    7.8730   -5.6590 C   0  0  2  0  0  0  0  0  0  0  0  0
    8.5980    5.2620  -11.2970 C   0  0  0  0  0  0  0  0  0  0  0  0
    7.3510    4.8290  -10.7510 O   0  0  0  0  0  0  0  0  0  0  0  0
   11.9930    6.8070   -3.5010 C   0  0  0  0  0  0  0  0  0  0  0  0
   11.1710    7.6110   -8.5720 N   0  0  0  0  0  0  0  0  0  0  0  0
   10.4260    6.5960   -7.5700 C   0  0  2  0  0  0  0  0  0  0  0  0
   11.7210    8.2680   -0.4340 F   0  0  0  0  0  0  0  0  0  0  0  0
   11.2660    9.1290   -6.6290 C   0  0  0  0  0  0  0  0  0  0  0  0
    5.6180    4.2920  -12.6260 C   0  0  0  0  0  0  0  0  0  0  0  0
    6.4420    3.9870  -11.3100 C   0  0  0  0  0  0  0  0  0  0  0  0
   13.7770    8.4810   -1.0600 F   0  0  0  0  0  0  0  0  0  0  0  0
   11.7590    7.9020   -4.3040 N   0  0  0  0  0  0  0  0  0  0  0  0
    5.6010    7.6860  -14.4840 O   0  0  0  0  0  0  0  0  0  0  0  0
    8.9780    6.6780   -7.9810 C   0  0  0  0  0  0  0  0  0  0  0  0
    5.9320    7.6610  -15.8940 C   0  0  0  0  0  0  0  0  0  0  0  0
   12.4040    6.8570   -2.1980 C   0  0  0  0  0  0  0  0  0  0  0  0
   11.8090   10.3370   -4.4370 O   0  0  0  0  0  0  0  0  0  0  0  0
    9.5230    5.9600  -10.3590 C   0  0  2  0  0  0  0  0  0  0  0  0
   12.8390    5.8640   -1.4370 F   0  0  0  0  0  0  0  0  0  0  0  0
  2 12  1  0
  3  6  1  1
  3 28  1  0
  5 15  1  0
  7 23  1  0
  8  4  1  1
  8  7  1  0
  9 22  1  0
 10 29  1  0
 10 14  1  0
 11 32  1  0
 11  1  1  0
 12 13  1  0
 13 25  1  0
 13 21  1  0
 14  8  1  0
 15 22  1  0
 15 26  1  1
 16 17  1  0
 18 30  2  0
 19  1  1  0
 19  9  1  0
 19 20  1  0
 20 28  1  1
 20  5  1  0
 23 24  1  0
 24 17  1  0
 26  2  1  0
 26 18  1  0
 27  8  1  0
 29 27  1  0
 30 13  1  0
 30 33  1  0
 31  2  2  0
 32 16  1  6
 32  3  1  0
M  END
>  <GenAI_Model>  (12) 
DiffSBDD

>  <Protein>  (12) 
generic_title2

>  <num_sample>  (12) 
50

$$$$
DiffSBDD_12_num_sample_50
     RDKit          3D

 28 29  0  0  0  0  0  0  0  0999 V2000
   12.1520    7.2670   -3.7770 C   0  0  2  0  0  0  0  0  0  0  0  0
    6.8040    4.1400  -12.5570 C   0  0  0  0  0  0  0  0  0  0  0  0
    7.1250    8.1570  -13.5840 O   0  0  0  0  0  0  0  0  0  0  0  0
   10.9850    7.0870   -9.4690 C   0  0  0  0  0  0  0  0  0  0  0  0
    8.5770    4.8410  -10.2780 C   0  0  0  0  0  0  0  0  0  0  0  0
   11.9380    8.0730   -2.5190 C   0  0  0  0  0  0  0  0  0  0  0  0
   11.8400    7.8200   -4.8090 O   0  0  0  0  0  0  0  0  0  0  0  0
   12.9050    8.2700   -1.6080 F   0  0  0  0  0  0  0  0  0  0  0  0
    9.4220    6.8170   -9.5820 C   0  0  1  0  0  0  0  0  0  0  0  0
    6.5390    5.8470  -14.2810 C   0  0  0  0  0  0  0  0  0  0  0  0
   11.5980    6.4890   -3.0560 C   0  0  0  0  0  0  0  0  0  0  0  0
    6.5470    7.1010  -12.7490 C   0  0  0  0  0  0  0  0  0  0  0  0
   11.0930    7.6050   -1.8200 F   0  0  0  0  0  0  0  0  0  0  0  0
    8.8630    6.7230  -11.0650 C   0  0  2  0  0  0  0  0  0  0  0  0
   11.0660    9.1660   -6.5620 C   0  0  0  0  0  0  0  0  0  0  0  0
   11.9080    9.4080   -3.0680 F   0  0  0  0  0  0  0  0  0  0  0  0
    5.6180    4.8660  -12.5310 C   0  0  0  0  0  0  0  0  0  0  0  0
    9.0920    8.1570  -11.1140 C   0  0  0  0  0  0  0  0  0  0  0  0
    8.1080    4.8900  -12.7660 C   0  0  1  0  0  0  0  0  0  0  0  0
    8.8250    4.6530   -8.8700 C   0  0  0  0  0  0  0  0  0  0  0  0
    9.6940    6.0950   -7.2820 C   0  0  0  0  0  0  0  0  0  0  0  0
    9.0160    6.0800   -8.2770 C   0  0  1  0  0  0  0  0  0  0  0  0
   10.2020    6.8020   -6.3600 C   0  0  0  0  0  0  0  0  0  0  0  0
    7.8170    5.7380  -13.9630 C   0  0  0  0  0  0  0  0  0  0  0  0
    5.7100    6.0180  -13.1710 C   0  0  2  0  0  0  0  0  0  0  0  0
    8.3710    5.4970  -11.4560 C   0  0  1  0  0  0  0  0  0  0  0  0
   11.1050    7.9440   -5.9000 C   0  0  2  0  0  0  0  0  0  0  0  0
   12.7900    6.0290   -1.9710 F   0  0  0  0  0  0  0  0  0  0  0  0
  1 11  1  1
  1  6  1  0
  2 17  1  0
  3 12  1  0
  5 20  1  0
  6 13  1  0
  6  8  1  0
  7  1  1  0
  9  4  1  6
  9 22  1  0
 10 24  1  0
 10 25  1  0
 11 28  1  0
 14 18  1  1
 14  9  1  0
 16  6  1  0
 19 24  1  6
 19  2  1  0
 19 26  1  0
 20 22  1  0
 21 23  1  0
 22 21  1  1
 23 27  1  0
 25 12  1  1
 25 17  1  0
 26 14  1  0
 26  5  1  1
 27 15  1  1
 27  7  1  0
M  END
>  <GenAI_Model>  (13) 
DiffSBDD

>  <Protein>  (13) 
generic_title2

>  <num_sample>  (13) 
50

$$$$
DiffSBDD_13_num_sample_50
     RDKit          3D

 26 30  0  0  0  0  0  0  0  0999 V2000
    9.7690    6.0380   -9.4700 C   0  0  0  0  0  0  0  0  0  0  0  0
    7.8560    6.6460  -11.6050 N   0  0  0  0  0  0  0  0  0  0  0  0
   12.4270    6.6800   -1.7410 C   0  0  0  0  0  0  0  0  0  0  0  0
   11.6690    6.9520   -4.0210 C   0  0  0  0  0  0  0  0  0  0  0  0
   10.9900    8.1150  -10.0870 C   0  0  0  0  0  0  0  0  0  0  0  0
   12.1350    8.3040   -4.0020 C   0  0  0  0  0  0  0  0  0  0  0  0
   10.2560    6.1750   -8.1260 C   0  0  0  0  0  0  0  0  0  0  0  0
    5.7870    3.7910  -12.0850 C   0  0  0  0  0  0  0  0  0  0  0  0
   11.8220    6.1280   -2.8790 C   0  0  0  0  0  0  0  0  0  0  0  0
    4.9590    4.8770  -12.9680 C   0  0  0  0  0  0  0  0  0  0  0  0
    9.0230    8.6700  -12.1300 O   0  0  0  0  0  0  0  0  0  0  0  0
    6.9910    6.4680  -12.8790 C   0  0  1  0  0  0  0  0  0  0  0  0
   13.2770    8.5360   -0.5630 O   0  0  0  0  0  0  0  0  0  0  0  0
   11.5930    8.1410   -8.8570 C   0  0  0  0  0  0  0  0  0  0  0  0
   11.9290    8.9690   -5.7430 S   0  0  0  0  0  0  0  0  0  0  0  0
    7.6450    5.3190  -12.0830 C   0  0  2  0  0  0  0  0  0  0  0  0
    9.2350    7.2900  -11.7670 C   0  0  1  0  0  0  0  0  0  0  0  0
   11.1680    6.5840   -5.3270 C   0  0  0  0  0  0  0  0  0  0  0  0
    9.9700    7.1310  -10.3760 C   0  0  0  0  0  0  0  0  0  0  0  0
   12.7580    8.0210   -1.6480 C   0  0  0  0  0  0  0  0  0  0  0  0
   11.3210    7.4450   -6.3650 C   0  0  0  0  0  0  0  0  0  0  0  0
    6.7340    4.4760  -11.1700 C   0  0  0  0  0  0  0  0  0  0  0  0
   11.0420    7.2790   -7.7840 C   0  0  0  0  0  0  0  0  0  0  0  0
    5.8530    5.8600  -13.7670 C   0  0  0  0  0  0  0  0  0  0  0  0
    8.9640    4.6500   -9.7280 Cl  0  0  0  0  0  0  0  0  0  0  0  0
   12.6450    8.8400   -2.7910 C   0  0  0  0  0  0  0  0  0  0  0  0
  1  7  2  0
  3 20  2  0
  4  6  1  0
  4  9  2  0
  5 14  1  0
  6 26  2  0
  7 23  1  0
  8 22  1  0
  9  3  1  0
 10  8  1  0
 12 24  1  1
 12 16  1  0
 12  2  1  0
 14 23  2  0
 15  6  1  0
 16  2  1  0
 16 22  1  1
 17 11  1  1
 17  2  1  0
 17 19  1  0
 18  4  1  0
 19  5  2  0
 19  1  1  0
 20 13  1  0
 21 15  1  0
 21 18  2  0
 23 21  1  0
 24 10  1  0
 25  1  1  0
 26 20  1  0
M  END
>  <GenAI_Model>  (14) 
DiffSBDD

>  <Protein>  (14) 
generic_title2

>  <num_sample>  (14) 
50

$$$$
DiffSBDD_14_num_sample_50
     RDKit          3D

 33 37  0  0  0  0  0  0  0  0999 V2000
    6.9400    5.8520  -13.3060 C   0  0  2  0  0  0  0  0  0  0  0  0
   10.8630    7.4330   -9.3760 C   0  0  1  0  0  0  0  0  0  0  0  0
    5.9260    7.7160  -15.0840 C   0  0  0  0  0  0  0  0  0  0  0  0
    5.1140    4.2280  -13.3480 C   0  0  0  0  0  0  0  0  0  0  0  0
    8.6120    5.5430   -9.9380 C   0  0  0  0  0  0  0  0  0  0  0  0
   11.8020    7.3030   -2.2160 C   0  0  0  0  0  0  0  0  0  0  0  0
   11.8110    6.4370   -1.1390 O   0  0  0  0  0  0  0  0  0  0  0  0
   12.3070    7.9440   -9.3060 C   0  0  0  0  0  0  0  0  0  0  0  0
   12.0490    6.6870   -7.4730 O   0  0  0  0  0  0  0  0  0  0  0  0
   10.9330    7.7100   -5.8170 C   0  0  0  0  0  0  0  0  0  0  0  0
   11.6590    8.6650   -6.9070 N   0  0  0  0  0  0  0  0  0  0  0  0
    8.6080    6.4270   -8.9760 N   0  0  0  0  0  0  0  0  0  0  0  0
    7.7380    6.7160  -12.3160 C   0  0  2  0  0  0  0  0  0  0  0  0
    5.7320    6.5390  -14.0210 C   0  0  1  0  0  0  0  0  0  0  0  0
    9.4550    5.9990   -7.7430 C   0  0  0  0  0  0  0  0  0  0  0  0
   13.2730    7.3660   -0.0500 C   0  0  0  0  0  0  0  0  0  0  0  0
   13.3590    8.6080   -0.8850 O   0  0  0  0  0  0  0  0  0  0  0  0
    5.6490    4.4180  -11.0140 C   0  0  0  0  0  0  0  0  0  0  0  0
    8.7150    4.3550   -9.4450 O   0  0  0  0  0  0  0  0  0  0  0  0
    7.7420    8.2470  -12.4930 C   0  0  0  0  0  0  0  0  0  0  0  0
   10.6930    6.7920   -8.0460 C   0  0  2  0  0  0  0  0  0  0  0  0
   11.3920    7.0110   -3.4810 C   0  0  0  0  0  0  0  0  0  0  0  0
   10.0570    8.6440   -9.4690 O   0  0  0  0  0  0  0  0  0  0  0  0
   13.0430    5.9910   -0.5620 C   0  0  0  0  0  0  0  0  0  0  0  0
    6.1750    4.7230  -12.4410 C   0  0  0  0  0  0  0  0  0  0  0  0
    5.0090    5.0170  -14.9750 S   0  0  0  0  0  0  0  0  0  0  0  0
   12.7820    9.4080   -3.2140 C   0  0  0  0  0  0  0  0  0  0  0  0
    8.6120    6.0100  -11.3960 C   0  0  0  0  0  0  0  0  0  0  0  0
    6.8660    3.6910  -11.5260 C   0  0  0  0  0  0  0  0  0  0  0  0
   11.5700    7.9580   -4.6210 C   0  0  0  0  0  0  0  0  0  0  0  0
   12.2430    9.1360   -4.4520 C   0  0  0  0  0  0  0  0  0  0  0  0
   12.5390    8.0230   -7.8550 C   0  0  2  0  0  0  0  0  0  0  0  0
   12.7200    8.5070   -2.1110 C   0  0  0  0  0  0  0  0  0  0  0  0
  1 25  1  1
  1 13  1  0
  2 23  1  1
  2  8  1  0
  2 21  1  0
  4 25  1  0
  5 19  2  0
  5 12  1  0
  6 33  2  0
  6  7  1  0
  7 24  1  0
  8 32  1  0
 10 30  1  0
 11 10  1  0
 12 15  1  0
 13 20  1  6
 13 28  1  0
 14  3  1  6
 14  1  1  0
 17 16  1  0
 21 15  1  6
 21  9  1  0
 22  6  1  0
 24 16  1  0
 25 29  1  0
 25 18  1  0
 26 14  1  0
 26  4  1  0
 27 33  1  0
 28  5  1  0
 29 18  1  0
 30 31  1  0
 30 22  2  0
 31 27  2  0
 32  9  1  0
 32 11  1  1
 33 17  1  0
M  END
>  <GenAI_Model>  (15) 
DiffSBDD

>  <Protein>  (15) 
generic_title2

>  <num_sample>  (15) 
50

$$$$
DiffSBDD_15_num_sample_50
     RDKit          3D

 48 52  0  0  0  0  0  0  0  0999 V2000
    8.9030    4.2610  -12.4880 N   0  0  0  0  0  0  0  0  0  0  0  0
   11.9880    8.6070   -5.6220 C   0  0  0  0  0  0  0  0  0  0  0  0
   11.8180    7.8730   -2.0640 C   0  0  1  0  0  0  0  0  0  0  0  0
   12.9090    9.6810   -0.9480 C   0  0  0  0  0  0  0  0  0  0  0  0
   10.6130    6.6580   -0.4340 O   0  0  0  0  0  0  0  0  0  0  0  0
    6.2560    5.9920  -15.0920 C   0  0  1  0  0  0  0  0  0  0  0  0
   13.9730   12.7790    0.8120 C   0  0  0  0  0  0  0  0  0  0  0  0
    4.7130    4.9690  -13.5250 O   0  0  0  0  0  0  0  0  0  0  0  0
    9.7040    5.6080  -12.5500 C   0  0  0  0  0  0  0  0  0  0  0  0
    7.8150    2.1850  -12.4520 O   0  0  0  0  0  0  0  0  0  0  0  0
    9.3130    8.6290   -9.0890 C   0  0  0  0  0  0  0  0  0  0  0  0
    9.2710    5.9040   -0.7160 C   0  0  0  0  0  0  0  0  0  0  0  0
    7.6870    4.7380  -11.4290 C   0  0  1  0  0  0  0  0  0  0  0  0
   13.7600    7.7870   -0.0050 C   0  0  0  0  0  0  0  0  0  0  0  0
   11.4200    5.6850   -2.6940 O   0  0  0  0  0  0  0  0  0  0  0  0
    6.9450    3.6440  -14.1170 C   0  0  1  0  0  0  0  0  0  0  0  0
   14.3810    8.4760    0.9540 C   0  0  0  0  0  0  0  0  0  0  0  0
    6.7860    5.5000  -12.4620 C   0  0  2  0  0  0  0  0  0  0  0  0
   12.1370    5.9010   -6.5140 F   0  0  0  0  0  0  0  0  0  0  0  0
   10.8650    6.3600   -6.3270 C   0  0  0  0  0  0  0  0  0  0  0  0
   11.2880    7.2960   -9.2300 C   0  0  0  0  0  0  0  0  0  0  0  0
    4.9080    6.1290  -17.1400 O   0  0  0  0  0  0  0  0  0  0  0  0
    7.7910    3.8400  -16.6120 C   0  0  0  0  0  0  0  0  0  0  0  0
    8.5870    5.3370   -9.2860 C   0  0  0  0  0  0  0  0  0  0  0  0
    5.8020    5.5140  -16.4910 C   0  0  0  0  0  0  0  0  0  0  0  0
   11.1360    8.8410   -6.7520 C   0  0  0  0  0  0  0  0  0  0  0  0
   12.9010   12.2620   -1.1020 O   0  0  0  0  0  0  0  0  0  0  0  0
   13.1880   11.8400   -0.1460 C   0  0  0  0  0  0  0  0  0  0  0  0
    6.1810    6.7600  -12.1360 O   0  0  0  0  0  0  0  0  0  0  0  0
    6.8530    4.0790  -10.4840 O   0  0  0  0  0  0  0  0  0  0  0  0
    7.2500    2.8980  -15.4370 C   0  0  0  0  0  0  0  0  0  0  0  0
   13.4910   10.3500    0.0620 C   0  0  0  0  0  0  0  0  0  0  0  0
    7.9540    3.2300  -13.0200 C   0  0  0  0  0  0  0  0  0  0  0  0
    9.9670    7.3520   -8.3960 C   0  0  0  0  0  0  0  0  0  0  0  0
    5.7230    7.4540  -14.9160 C   0  0  0  0  0  0  0  0  0  0  0  0
    8.8200    6.2930   -8.1020 C   0  0  0  0  0  0  0  0  0  0  0  0
    6.6020    4.5620  -17.2070 C   0  0  0  0  0  0  0  0  0  0  0  0
   10.3130    7.5970   -6.9100 C   0  0  1  0  0  0  0  0  0  0  0  0
   11.1740    6.6900   -1.6680 C   0  0  2  0  0  0  0  0  0  0  0  0
   11.5170    7.7100   -4.4990 C   0  0  2  0  0  0  0  0  0  0  0  0
    6.0730    4.9500  -13.8760 C   0  0  1  0  0  0  0  0  0  0  0  0
   13.6750   14.1470    0.2610 C   0  0  0  0  0  0  0  0  0  0  0  0
    9.7770    6.0580  -11.2010 C   0  0  0  0  0  0  0  0  0  0  0  0
   13.0370    8.3380   -1.1220 C   0  0  0  0  0  0  0  0  0  0  0  0
   11.6630    8.6710   -3.2930 C   0  0  0  0  0  0  0  0  0  0  0  0
   11.4300    6.2410   -4.0370 C   0  0  0  0  0  0  0  0  0  0  0  0
   14.3570    9.8740    0.9480 C   0  0  0  0  0  0  0  0  0  0  0  0
    8.5900    5.6640  -10.5430 C   0  0  1  0  0  0  0  0  0  0  0  0
  1 13  1  0
  3 39  1  0
  3 44  1  6
  4 32  2  0
  6 35  1  1
  6 41  1  0
  9  1  1  0
  9 43  1  0
 11 34  1  0
 12  5  1  0
 13 48  1  0
 13 30  1  1
 14 17  1  0
 15 39  1  0
 16 31  1  6
 16 41  1  0
 16 33  1  0
 18 29  1  1
 18 13  1  0
 19 20  1  0
 21 34  1  0
 22 25  2  0
 23 31  1  0
 24 36  1  0
 25  6  1  0
 26  2  1  0
 27 28  2  0
 28 32  1  0
 28  7  1  0
 32 47  1  0
 33  1  1  0
 33 10  2  0
 34 36  1  0
 34 38  1  0
 37 23  1  0
 37 25  1  0
 38 26  1  6
 38 20  1  0
 39  5  1  1
 40  2  1  6
 40 46  1  0
 40 45  1  0
 41  8  1  1
 41 18  1  0
 42  7  1  0
 43 48  1  0
 44  4  1  0
 44 14  2  0
 45  3  1  0
 46 15  1  0
 47 17  2  0
 48 24  1  1
M  END
>  <GenAI_Model>  (16) 
DiffSBDD

>  <Protein>  (16) 
generic_title2

>  <num_sample>  (16) 
50

$$$$
DiffSBDD_16_num_sample_50
     RDKit          3D

 34 39  0  0  0  0  0  0  0  0999 V2000
   10.2890    4.9770   -7.9340 F   0  0  0  0  0  0  0  0  0  0  0  0
    6.1610    5.8420  -13.5310 C   0  0  2  0  0  0  0  0  0  0  0  0
   10.6670    7.7670  -10.2760 C   0  0  2  0  0  0  0  0  0  0  0  0
   10.2440    7.0130   -7.4760 C   0  0  0  0  0  0  0  0  0  0  0  0
   11.6300    8.5120   -5.3930 C   0  0  0  0  0  0  0  0  0  0  0  0
   13.4760   10.9980   -0.1740 O   0  0  0  0  0  0  0  0  0  0  0  0
   11.0790    7.3530   -5.7990 C   0  0  0  0  0  0  0  0  0  0  0  0
    7.1930    4.7970  -13.0810 C   0  0  1  0  0  0  0  0  0  0  0  0
   11.6110    7.9590   -9.4130 C   0  0  0  0  0  0  0  0  0  0  0  0
    8.2230    5.5290   -8.3540 C   0  0  0  0  0  0  0  0  0  0  0  0
   13.0230   10.1820   -0.9100 C   0  0  0  0  0  0  0  0  0  0  0  0
    7.9400    3.5300  -13.5560 C   0  0  0  0  0  0  0  0  0  0  0  0
    6.3640    5.4930  -14.9460 C   0  0  0  0  0  0  0  0  0  0  0  0
   11.1160    6.3370   -4.9010 C   0  0  0  0  0  0  0  0  0  0  0  0
   13.0670    6.7760    0.2250 N   0  0  0  0  0  0  0  0  0  0  0  0
    8.3710    5.8250  -12.2830 C   0  0  0  0  0  0  0  0  0  0  0  0
   12.4770    7.7490   -1.6660 C   0  0  2  0  0  0  0  0  0  0  0  0
   12.4280    6.5790   -0.9360 C   0  0  0  0  0  0  0  0  0  0  0  0
   12.2700   10.5310   -2.0560 N   0  0  0  0  0  0  0  0  0  0  0  0
   11.2760    7.7290   -8.0240 C   0  0  0  0  0  0  0  0  0  0  0  0
    9.4510    5.8800  -12.9810 C   0  0  0  0  0  0  0  0  0  0  0  0
   11.5650    6.5270   -3.6080 C   0  0  0  0  0  0  0  0  0  0  0  0
    9.3850    6.8470  -10.1510 C   0  0  0  0  0  0  0  0  0  0  0  0
   12.0710    7.7540   -3.1410 C   0  0  0  0  0  0  0  0  0  0  0  0
    6.0290    3.7420  -14.8660 C   0  0  0  0  0  0  0  0  0  0  0  0
    7.3080    5.2650  -11.8210 C   0  0  0  0  0  0  0  0  0  0  0  0
   11.3050    7.1240  -11.7490 C   0  0  0  0  0  0  0  0  0  0  0  0
    9.4580    6.0960   -8.5590 S   0  0  2  0  0  0  0  0  0  0  0  0
   13.5160    7.9990    0.3010 N   0  0  0  0  0  0  0  0  0  0  0  0
   12.1010    8.7660   -4.1330 C   0  0  0  0  0  0  0  0  0  0  0  0
    6.4960    6.8410  -14.3470 C   0  0  0  0  0  0  0  0  0  0  0  0
   10.6800    6.5860  -12.7140 C   0  0  0  0  0  0  0  0  0  0  0  0
    6.5990    3.4670  -13.3460 C   0  0  2  0  0  0  0  0  0  0  0  0
   13.0250    8.7110   -0.7860 C   0  0  2  0  0  0  0  0  0  0  0  0
  2 31  1  6
  2  8  1  0
  3 27  1  6
  3 23  1  0
  3  9  1  0
  4  7  1  0
  5 30  2  0
  7  5  1  0
  7 14  2  0
  8 26  1  6
  9 20  1  0
 11  6  2  0
 33 12  1  6
 12  8  1  0
 13 25  1  0
 13 31  1  0
 13  2  1  0
 14 22  1  0
 15 29  1  0
 16 26  1  0
 17 24  1  6
 17 18  1  0
 17 34  1  0
 18 15  1  0
 19 11  1  0
 20  4  2  0
 21 32  1  0
 21 16  1  0
 22 24  2  0
 23 28  1  0
 28 10  1  1
 28  1  1  0
 28  4  1  0
 30 24  1  0
 32 27  1  0
 33 25  1  0
 33  8  1  0
 34 11  1  1
 34 29  1  0
M  END
>  <GenAI_Model>  (17) 
DiffSBDD

>  <Protein>  (17) 
generic_title2

>  <num_sample>  (17) 
50

$$$$
DiffSBDD_17_num_sample_50
     RDKit          3D

 26 28  0  0  0  0  0  0  0  0999 V2000
    7.2150    4.3230  -11.5090 C   0  0  2  0  0  0  0  0  0  0  0  0
   12.9000    6.7820   -1.6990 C   0  0  2  0  0  0  0  0  0  0  0  0
    9.5920    6.1130   -9.7890 C   0  0  0  0  0  0  0  0  0  0  0  0
   12.0470    9.1440   -5.7040 C   0  0  0  0  0  0  0  0  0  0  0  0
    7.4460    5.4510  -10.5560 N   0  0  0  0  0  0  0  0  0  0  0  0
    6.1770    6.9240  -13.8930 C   0  0  0  0  0  0  0  0  0  0  0  0
   10.1850    7.0360   -8.8080 C   0  0  0  0  0  0  0  0  0  0  0  0
    8.5110    3.8200  -12.1290 C   0  0  0  0  0  0  0  0  0  0  0  0
   12.1240    8.2230   -3.4090 C   0  0  2  0  0  0  0  0  0  0  0  0
    6.2200    5.6170  -14.8180 C   0  0  0  0  0  0  0  0  0  0  0  0
    6.9100    4.6190  -14.0390 C   0  0  0  0  0  0  0  0  0  0  0  0
   11.5940    8.7840   -8.1710 C   0  0  0  0  0  0  0  0  0  0  0  0
   11.8590    9.7160   -3.4910 C   0  0  0  0  0  0  0  0  0  0  0  0
   11.3310    6.8700   -3.5650 C   0  0  0  0  0  0  0  0  0  0  0  0
   10.3040    7.7410   -6.5220 N   0  0  0  0  0  0  0  0  0  0  0  0
    6.3080    4.8200  -12.6640 C   0  0  0  0  0  0  0  0  0  0  0  0
    5.9850    6.3200  -12.5290 C   0  0  0  0  0  0  0  0  0  0  0  0
   11.5660   10.1050   -4.5960 N   0  0  0  0  0  0  0  0  0  0  0  0
   11.9280   10.3480   -2.5250 O   0  0  0  0  0  0  0  0  0  0  0  0
    9.8950    6.9720   -7.4000 C   0  0  0  0  0  0  0  0  0  0  0  0
    8.5770    5.0920   -9.5850 C   0  0  0  0  0  0  0  0  0  0  0  0
   11.0090    8.0680   -9.0800 C   0  0  0  0  0  0  0  0  0  0  0  0
   11.2810    8.6050   -6.8520 C   0  0  0  0  0  0  0  0  0  0  0  0
   11.3210    6.2880   -1.8780 S   0  0  0  0  0  0  0  0  0  0  0  0
   13.6790    6.0730   -0.7490 C   0  0  0  0  0  0  0  0  0  0  0  0
   13.3920    7.9590   -2.4290 O   0  0  0  0  0  0  0  0  0  0  0  0
  1  8  1  6
  1  5  1  0
  2 25  1  1
  3 21  1  0
  3  7  1  0
  4 18  1  0
  5 21  1  0
  6 17  1  0
  7 20  1  0
  9 13  1  1
  9 26  1  0
 10 11  1  0
 10  6  1  0
 11 16  1  0
 12 23  2  0
 13 19  2  0
 14  9  1  0
 14 24  1  0
 16 17  1  0
 16  1  1  0
 18 13  1  0
 20 15  2  0
 22  7  2  0
 22 12  1  0
 23 15  1  0
 23  4  1  0
 24  2  1  0
 26  2  1  0
M  END
>  <GenAI_Model>  (18) 
DiffSBDD

>  <Protein>  (18) 
generic_title2

>  <num_sample>  (18) 
50

$$$$
DiffSBDD_18_num_sample_50
     RDKit          3D

 27 30  0  0  0  0  0  0  0  0999 V2000
   12.1770    9.3570   -2.9360 C   0  0  0  0  0  0  0  0  0  0  0  0
    7.3870    4.9130  -11.2480 C   0  0  2  0  0  0  0  0  0  0  0  0
   11.3180    6.2120   -4.5260 C   0  0  0  0  0  0  0  0  0  0  0  0
   12.5770    7.5420   -1.4480 C   0  0  0  0  0  0  0  0  0  0  0  0
   12.6270    8.8480   -1.7160 C   0  0  0  0  0  0  0  0  0  0  0  0
   10.1960    6.5360  -11.9770 C   0  0  0  0  0  0  0  0  0  0  0  0
    8.9270    5.8870   -8.3110 O   0  0  0  0  0  0  0  0  0  0  0  0
    9.6110    6.5600  -10.5210 C   0  0  0  0  0  0  0  0  0  0  0  0
   11.7020    8.8670   -5.4090 C   0  0  2  0  0  0  0  0  0  0  0  0
    6.6430    5.5930  -13.7830 S   0  0  0  0  0  0  0  0  0  0  0  0
   10.3220    6.1950  -13.3350 C   0  0  0  0  0  0  0  0  0  0  0  0
    7.6670    4.9820   -9.8700 C   0  0  0  0  0  0  0  0  0  0  0  0
   10.3250    7.3690   -9.9310 C   0  0  0  0  0  0  0  0  0  0  0  0
    9.2090    6.3480  -14.3170 C   0  0  0  0  0  0  0  0  0  0  0  0
   11.0200    9.6120   -6.4990 C   0  0  0  0  0  0  0  0  0  0  0  0
   10.4510    6.3060   -8.2400 C   0  0  0  0  0  0  0  0  0  0  0  0
    8.7590    6.0890   -9.6720 N   0  0  0  0  0  0  0  0  0  0  0  0
   11.5210    7.6860   -6.3780 C   0  0  0  0  0  0  0  0  0  0  0  0
    6.2500    5.4430  -12.1200 C   0  0  0  0  0  0  0  0  0  0  0  0
    7.5900    3.6050  -11.6960 O   0  0  0  0  0  0  0  0  0  0  0  0
   12.1430    6.6290   -2.4610 C   0  0  0  0  0  0  0  0  0  0  0  0
   11.8030    7.2680   -3.6720 C   0  0  0  0  0  0  0  0  0  0  0  0
   11.6630    8.4010   -3.9690 C   0  0  0  0  0  0  0  0  0  0  0  0
   10.7290    7.7010   -8.2390 C   0  0  2  0  0  0  0  0  0  0  0  0
    7.8330    6.7120  -13.4280 C   0  0  0  0  0  0  0  0  0  0  0  0
   10.7050    6.6800   -5.6560 C   0  0  0  0  0  0  0  0  0  0  0  0
   10.1070    8.8950   -7.5280 C   0  0  0  0  0  0  0  0  0  0  0  0
  1  5  2  0
  2 20  1  1
  2 12  1  0
  3 22  1  0
  5  4  1  0
  6  8  2  0
  7 16  1  0
  8 13  1  0
  8 17  1  0
  9 15  1  1
  9 23  1  0
 10 25  1  0
 10 19  1  0
 11  6  2  0
 12 17  1  0
 13 24  1  0
 14 25  1  0
 14 11  1  0
 16 24  1  0
 17  7  1  0
 18 26  1  0
 18  9  1  0
 19  2  1  0
 21  4  2  0
 22 21  1  0
 23 22  2  0
 23  1  1  0
 24 27  1  1
 26  3  1  0
 27 15  1  0
M  END
>  <GenAI_Model>  (19) 
DiffSBDD

>  <Protein>  (19) 
generic_title2

>  <num_sample>  (19) 
50

$$$$
DiffSBDD_19_num_sample_50
     RDKit          3D

 39 44  0  0  0  0  0  0  0  0999 V2000
    9.0550    5.0690   -8.9420 C   0  0  1  0  0  0  0  0  0  0  0  0
   12.0570    6.3960   -2.4510 C   0  0  0  0  0  0  0  0  0  0  0  0
    8.4880    4.1480   -7.4000 O   0  0  0  0  0  0  0  0  0  0  0  0
   12.4240    7.6080   -1.8040 C   0  0  0  0  0  0  0  0  0  0  0  0
   11.7840    8.8120   -6.7110 C   0  0  0  0  0  0  0  0  0  0  0  0
   11.8350   10.0180   -6.3200 C   0  0  0  0  0  0  0  0  0  0  0  0
    8.5770    4.7380  -12.1000 C   0  0  2  0  0  0  0  0  0  0  0  0
   13.4440    8.4830   -0.0150 O   0  0  0  0  0  0  0  0  0  0  0  0
    9.9890    7.0370   -8.0110 C   0  0  1  0  0  0  0  0  0  0  0  0
    8.6240    6.2450  -11.9130 C   0  0  1  0  0  0  0  0  0  0  0  0
   11.4540    7.8400   -5.6840 O   0  0  0  0  0  0  0  0  0  0  0  0
   11.5600   11.1250   -2.9630 O   0  0  0  0  0  0  0  0  0  0  0  0
   12.6350    8.8430   -2.3200 C   0  0  0  0  0  0  0  0  0  0  0  0
    8.5250    5.4480   -7.7050 C   0  0  1  0  0  0  0  0  0  0  0  0
    8.1380    4.0040   -9.6410 C   0  0  0  0  0  0  0  0  0  0  0  0
    5.4890    6.6290  -14.9550 C   0  0  0  0  0  0  0  0  0  0  0  0
   11.8180    7.7440   -4.4140 C   0  0  0  0  0  0  0  0  0  0  0  0
    7.7390    6.9500  -12.4990 C   0  0  0  0  0  0  0  0  0  0  0  0
   12.4740    7.7950   -0.5030 N   0  0  0  0  0  0  0  0  0  0  0  0
    6.7980    5.9540  -14.5590 C   0  0  0  0  0  0  0  0  0  0  0  0
   11.6500   10.2260   -3.9200 C   0  0  0  0  0  0  0  0  0  0  0  0
   12.0290    8.8750   -3.6490 C   0  0  0  0  0  0  0  0  0  0  0  0
    7.4440    5.7770  -15.8680 C   0  0  0  0  0  0  0  0  0  0  0  0
    9.9100    4.3120  -11.8680 O   0  0  0  0  0  0  0  0  0  0  0  0
    8.0390    4.1580  -13.4550 C   0  0  0  0  0  0  0  0  0  0  0  0
    7.2660    6.9400  -13.9490 O   0  0  0  0  0  0  0  0  0  0  0  0
    7.7090    4.2040  -11.1070 C   0  0  2  0  0  0  0  0  0  0  0  0
    9.8750    6.4560   -9.3730 C   0  0  2  0  0  0  0  0  0  0  0  0
   11.7130    6.5200   -3.7670 C   0  0  0  0  0  0  0  0  0  0  0  0
   11.7890    8.4870   -7.8000 O   0  0  0  0  0  0  0  0  0  0  0  0
    5.7320    4.6310  -12.4940 C   0  0  0  0  0  0  0  0  0  0  0  0
    9.5130    6.2010   -6.9730 C   0  0  0  0  0  0  0  0  0  0  0  0
    6.3680    3.6430  -11.5380 C   0  0  0  0  0  0  0  0  0  0  0  0
    8.7220    6.9790  -10.5450 C   0  0  0  0  0  0  0  0  0  0  0  0
    6.6400    4.6140  -13.7950 C   0  0  1  0  0  0  0  0  0  0  0  0
   11.1230    7.4250   -7.9870 C   0  0  0  0  0  0  0  0  0  0  0  0
   11.4480    7.5680    0.1080 O   0  0  0  0  0  0  0  0  0  0  0  0
   11.1250    6.7850  -10.2910 O   0  0  0  0  0  0  0  0  0  0  0  0
   11.6060   10.7330   -5.2360 C   0  0  0  0  0  0  0  0  0  0  0  0
  1 15  1  6
  1 14  1  0
  2  4  2  0
  4 19  1  0
  5  6  2  0
  5 11  1  0
  6 39  1  0
  7 10  1  0
  7 24  1  1
  7 27  1  0
  9 36  1  1
  9 32  1  0
 10 18  1  1
 10 34  1  0
 11 17  1  0
 13  4  1  0
 14  3  1  1
 14 32  1  0
 16 20  1  0
 17 29  1  0
 17 22  2  0
 19  8  1  0
 19 37  2  0
 20 26  1  0
 20 35  1  0
 21 22  1  0
 21 12  1  0
 22 13  1  0
 23 20  1  0
 25  7  1  0
 26 18  1  0
 27 33  1  6
 27 15  1  0
 28 38  1  6
 28  1  1  0
 28  9  1  0
 29  2  1  0
 30  5  1  0
 31 33  1  0
 34 28  1  0
 35 25  1  0
 35 31  1  1
 36 30  1  0
 39 21  2  0
M  CHG  2   8  -1  19   1
M  END
>  <GenAI_Model>  (20) 
DiffSBDD

>  <Protein>  (20) 
generic_title2

>  <num_sample>  (20) 
50

$$$$
DiffSBDD_20_num_sample_50
     RDKit          3D

 33 38  0  0  0  0  0  0  0  0999 V2000
   11.3350    9.2460   -0.2910 F   0  0  0  0  0  0  0  0  0  0  0  0
   10.3990    7.1650   -1.0970 F   0  0  0  0  0  0  0  0  0  0  0  0
   13.5020    8.4920   -0.9100 F   0  0  0  0  0  0  0  0  0  0  0  0
    8.7140    6.4570   -9.5120 C   0  0  2  0  0  0  0  0  0  0  0  0
    5.7090    5.7830  -14.0160 C   0  0  0  0  0  0  0  0  0  0  0  0
   10.8650    7.8880   -7.4640 C   0  0  0  0  0  0  0  0  0  0  0  0
    7.2930    3.4440  -14.3050 C   0  0  0  0  0  0  0  0  0  0  0  0
    9.2110    6.3650  -10.8030 C   0  0  1  0  0  0  0  0  0  0  0  0
   11.9530    7.4940   -4.0000 N   0  0  0  0  0  0  0  0  0  0  0  0
   11.1470    6.2780   -5.6500 C   0  0  0  0  0  0  0  0  0  0  0  0
    6.1810    3.4190  -11.8890 C   0  0  0  0  0  0  0  0  0  0  0  0
    8.0660    6.2610  -11.6360 C   0  0  0  0  0  0  0  0  0  0  0  0
    8.2340    2.8990  -13.9480 C   0  0  0  0  0  0  0  0  0  0  0  0
   10.8620    6.6290   -8.0180 N   0  0  0  0  0  0  0  0  0  0  0  0
   11.1390    7.6590   -6.2020 C   0  0  0  0  0  0  0  0  0  0  0  0
    8.4400    5.3290   -8.9070 C   0  0  0  0  0  0  0  0  0  0  0  0
   12.8090    6.5320   -1.1140 F   0  0  0  0  0  0  0  0  0  0  0  0
   12.4290    9.4040   -3.2350 C   0  0  0  0  0  0  0  0  0  0  0  0
    7.1900    4.5220  -15.3730 C   0  0  2  0  0  0  0  0  0  0  0  0
    9.5250    7.6520   -9.6940 C   0  0  0  0  0  0  0  0  0  0  0  0
    6.1530    3.2900  -13.6020 C   0  0  1  0  0  0  0  0  0  0  0  0
   11.6920    8.3890   -5.1320 C   0  0  0  0  0  0  0  0  0  0  0  0
    8.2810    5.3440  -15.1580 C   0  0  0  0  0  0  0  0  0  0  0  0
   12.5400    7.7320   -1.4350 C   0  0  0  0  0  0  0  0  0  0  0  0
   11.9980    9.6540   -4.5650 C   0  0  0  0  0  0  0  0  0  0  0  0
    9.4580    6.1530   -8.4010 C   0  0  2  0  0  0  0  0  0  0  0  0
   12.3310    8.0170   -2.8740 N   0  0  0  0  0  0  0  0  0  0  0  0
    5.7680    4.6190  -14.8690 C   0  0  1  0  0  0  0  0  0  0  0  0
   11.5900    6.1850   -4.3200 C   0  0  0  0  0  0  0  0  0  0  0  0
    8.2950    5.7220  -13.4550 S   0  0  1  0  0  0  0  0  0  0  0  0
    6.7470    6.9620  -13.8450 C   0  0  0  0  0  0  0  0  0  0  0  0
   11.3520    7.9390   -0.6930 C   0  0  0  0  0  0  0  0  0  0  0  0
    5.7060    4.7170  -11.2080 C   0  0  0  0  0  0  0  0  0  0  0  0
  2 32  1  0
  4 20  1  6
  4 16  1  0
  4 26  1  0
  5 31  1  0
  6 15  1  0
  7 13  2  0
  7 21  1  0
  8 12  1  6
  8 20  1  0
  8  4  1  0
  9 27  1  0
 10 29  2  0
 11 33  1  0
 14  6  1  0
 15 10  1  0
 15 22  2  0
 16 26  1  0
 18 27  1  0
 19 23  1  1
 19 28  1  0
 19  7  1  0
 21 11  1  1
 22 25  1  0
 22  9  1  0
 23 30  1  0
 24 17  1  0
 24  3  1  0
 24 32  1  0
 25 18  2  0
 26 14  1  6
 27 24  1  0
 28  5  1  1
 28 21  1  0
 29  9  1  0
 30 12  1  0
 31 30  1  0
 32  1  1  0
M  END
>  <GenAI_Model>  (21) 
DiffSBDD

>  <Protein>  (21) 
generic_title2

>  <num_sample>  (21) 
50

$$$$
DiffSBDD_21_num_sample_50
     RDKit          3D

 30 33  0  0  0  0  0  0  0  0999 V2000
   12.2490    9.2080   -2.6780 C   0  0  2  0  0  0  0  0  0  0  0  0
    7.4910    6.4090  -12.8620 C   0  0  2  0  0  0  0  0  0  0  0  0
   12.2140    6.2510   -2.4230 C   0  0  0  0  0  0  0  0  0  0  0  0
    7.9750    6.4350  -11.5580 O   0  0  0  0  0  0  0  0  0  0  0  0
    8.8970    4.5530  -11.9930 C   0  0  0  0  0  0  0  0  0  0  0  0
    8.9680    6.5750   -9.1480 N   0  0  0  0  0  0  0  0  0  0  0  0
   11.4910    7.5100   -4.4980 C   0  0  0  0  0  0  0  0  0  0  0  0
   11.6580    8.3850   -8.1620 C   0  0  0  0  0  0  0  0  0  0  0  0
    8.1480    4.4930   -8.6600 O   0  0  0  0  0  0  0  0  0  0  0  0
    8.0620    6.0430  -14.2590 C   0  0  0  0  0  0  0  0  0  0  0  0
   11.1940    9.8470   -6.2900 C   0  0  0  0  0  0  0  0  0  0  0  0
    8.7960    5.4350  -11.1680 C   0  0  2  0  0  0  0  0  0  0  0  0
    6.5330    8.4900  -12.5370 F   0  0  0  0  0  0  0  0  0  0  0  0
   13.3850    9.0000   -0.6220 F   0  0  0  0  0  0  0  0  0  0  0  0
   12.7000    8.3020   -1.6710 C   0  0  1  0  0  0  0  0  0  0  0  0
   11.2230    7.1930   -5.9630 C   0  0  0  0  0  0  0  0  0  0  0  0
   11.4850    9.9800   -4.9800 C   0  0  0  0  0  0  0  0  0  0  0  0
   11.0410    8.4680   -6.8430 C   0  0  0  0  0  0  0  0  0  0  0  0
   12.6360    6.9680   -1.2840 C   0  0  0  0  0  0  0  0  0  0  0  0
    8.7350    5.2730   -9.6570 C   0  0  0  0  0  0  0  0  0  0  0  0
   10.2540    6.9110   -9.0190 C   0  0  1  0  0  0  0  0  0  0  0  0
    5.4270    7.0480  -13.7630 F   0  0  0  0  0  0  0  0  0  0  0  0
   10.9810    7.9940   -9.4340 C   0  0  0  0  0  0  0  0  0  0  0  0
   11.6380    6.4370   -3.5090 C   0  0  0  0  0  0  0  0  0  0  0  0
   12.0660   10.4780   -2.4340 O   0  0  0  0  0  0  0  0  0  0  0  0
    9.5810    6.2570   -7.9620 O   0  0  0  0  0  0  0  0  0  0  0  0
    9.5660    6.0860  -14.0430 C   0  0  0  0  0  0  0  0  0  0  0  0
    6.3400    7.4590  -13.0360 C   0  0  0  0  0  0  0  0  0  0  0  0
   11.7660    8.8560   -4.0620 C   0  0  0  0  0  0  0  0  0  0  0  0
    9.9200    5.0700  -12.9920 C   0  0  0  0  0  0  0  0  0  0  0  0
  1 25  1  1
  1 15  1  0
  2 28  1  6
  2  4  1  0
  3 19  1  0
  4 12  1  0
  5 12  1  0
  6 21  1  0
  6 26  1  0
  7 29  2  0
  7 24  1  0
  8 18  1  0
 10 27  1  0
 10  2  1  0
 11 17  2  0
 12 20  1  1
 15 19  1  0
 15 14  1  1
 16  7  1  0
 17 29  1  0
 18 11  1  0
 18 16  2  0
 20  6  1  0
 20  9  2  0
 21 23  1  1
 21 26  1  0
 22 28  1  0
 23  8  1  0
 24  3  1  0
 27 30  1  0
 28 13  1  0
 29  1  1  0
 30  5  1  0
M  END
>  <GenAI_Model>  (22) 
DiffSBDD

>  <Protein>  (22) 
generic_title2

>  <num_sample>  (22) 
50

$$$$
DiffSBDD_22_num_sample_50
     RDKit          3D

 24 27  0  0  0  0  0  0  0  0999 V2000
   11.0260    8.0250  -10.2250 C   0  0  0  0  0  0  0  0  0  0  0  0
    7.9840    4.1630  -13.1990 C   0  0  0  0  0  0  0  0  0  0  0  0
    8.2470    3.0160  -13.0000 O   0  0  0  0  0  0  0  0  0  0  0  0
    9.0040    8.0270  -10.9820 C   0  0  1  0  0  0  0  0  0  0  0  0
   11.8690    8.2780   -8.9660 C   0  0  0  0  0  0  0  0  0  0  0  0
    8.7620    5.2310  -13.5690 C   0  0  0  0  0  0  0  0  0  0  0  0
    7.7640    5.5480   -7.9200 C   0  0  0  0  0  0  0  0  0  0  0  0
    7.7250    4.1680  -10.5850 S   0  0  0  0  0  0  0  0  0  0  0  0
    8.0920    5.7840   -9.8400 C   0  0  1  0  0  0  0  0  0  0  0  0
    9.4970    7.3220  -12.4450 C   0  0  2  0  0  0  0  0  0  0  0  0
   11.5690    7.3460  -11.2840 C   0  0  0  0  0  0  0  0  0  0  0  0
   11.0640    6.3230  -13.4180 O   0  0  0  0  0  0  0  0  0  0  0  0
    7.9910    6.9800  -10.3120 C   0  0  0  0  0  0  0  0  0  0  0  0
    6.4020    6.5420  -12.2780 C   0  0  2  0  0  0  0  0  0  0  0  0
    6.6950    4.5750  -14.1970 C   0  0  1  0  0  0  0  0  0  0  0  0
    6.0110    6.5050  -13.5470 C   0  0  0  0  0  0  0  0  0  0  0  0
    7.9670    6.6520  -13.3600 S   0  0  2  0  0  0  0  0  0  0  0  0
    5.5990    5.8220  -11.2970 C   0  0  0  0  0  0  0  0  0  0  0  0
   11.4610    9.0650   -7.6980 C   0  0  0  0  0  0  0  0  0  0  0  0
    5.5670    3.9010  -13.1870 C   0  0  0  0  0  0  0  0  0  0  0  0
   10.7590    7.0600  -12.3670 C   0  0  1  0  0  0  0  0  0  0  0  0
    6.6130    5.6960  -14.4320 C   0  0  0  0  0  0  0  0  0  0  0  0
    5.9210    4.1960  -11.4730 C   0  0  1  0  0  0  0  0  0  0  0  0
    9.9430    8.4200  -10.3190 O   0  0  0  0  0  0  0  0  0  0  0  0
  1  5  1  0
  2  3  2  0
  4 24  1  0
  4 13  1  1
  5 19  1  0
 17  6  1  1
  6  2  1  0
  8  9  1  0
  9  7  1  1
 10 21  1  1
 10  4  1  0
 11  1  2  0
 21 12  1  1
 13  9  1  0
 14 18  1  1
 15  2  1  0
 15 20  1  1
 16 14  1  0
 17 10  1  0
 17 14  1  0
 23 20  1  6
 21 11  1  0
 22 15  1  0
 22 16  1  0
 23 18  1  0
 23  8  1  0
 24  1  1  0
M  END
>  <GenAI_Model>  (23) 
DiffSBDD

>  <Protein>  (23) 
generic_title2

>  <num_sample>  (23) 
50

$$$$
DiffSBDD_23_num_sample_50
     RDKit          3D

 29 31  0  0  0  0  0  0  0  0999 V2000
    9.3980    7.1460   -7.0000 C   0  0  0  0  0  0  0  0  0  0  0  0
   11.9910    7.6260   -8.0390 C   0  0  0  0  0  0  0  0  0  0  0  0
   12.9400    8.7560   -2.0050 C   0  0  0  0  0  0  0  0  0  0  0  0
   11.6950    6.8330   -2.4460 C   0  0  0  0  0  0  0  0  0  0  0  0
   10.5530    7.0810   -6.0730 C   0  0  0  0  0  0  0  0  0  0  0  0
   12.2910    6.1390   -1.3240 C   0  0  0  0  0  0  0  0  0  0  0  0
    8.8950    5.3070  -10.1640 C   0  0  1  0  0  0  0  0  0  0  0  0
    8.3120    3.5610  -14.9030 O   0  0  0  0  0  0  0  0  0  0  0  0
   11.6600    8.0040   -6.6390 C   0  0  0  0  0  0  0  0  0  0  0  0
   11.4860    8.6050   -3.9590 O   0  0  0  0  0  0  0  0  0  0  0  0
    7.3070    4.2930  -14.5010 C   0  0  0  0  0  0  0  0  0  0  0  0
   11.2170    6.3900   -8.4210 C   0  0  0  0  0  0  0  0  0  0  0  0
    6.9770    4.1500  -13.0720 C   0  0  0  0  0  0  0  0  0  0  0  0
    9.7400    6.7360   -8.3920 N   0  0  0  0  0  0  0  0  0  0  0  0
    6.6760    5.0710  -15.2970 O   0  0  0  0  0  0  0  0  0  0  0  0
    9.6700    6.3130  -11.0530 C   0  0  0  0  0  0  0  0  0  0  0  0
    8.8400    5.5400   -8.7440 C   0  0  0  0  0  0  0  0  0  0  0  0
    7.6620    6.5520  -12.6690 C   0  0  0  0  0  0  0  0  0  0  0  0
    7.3810    2.6820  -12.8080 C   0  0  0  0  0  0  0  0  0  0  0  0
   13.4950    8.2060   -0.8480 C   0  0  0  0  0  0  0  0  0  0  0  0
   11.6210    9.3830   -6.1920 C   0  0  0  0  0  0  0  0  0  0  0  0
   11.9370    9.4750   -4.6470 C   0  0  0  0  0  0  0  0  0  0  0  0
    5.4210    4.4280  -12.9420 C   0  0  0  0  0  0  0  0  0  0  0  0
    7.6210    4.8610  -10.8100 C   0  0  0  0  0  0  0  0  0  0  0  0
    8.5000    8.7500  -11.8810 C   0  0  0  0  0  0  0  0  0  0  0  0
    7.8800    5.0770  -12.2990 C   0  0  1  0  0  0  0  0  0  0  0  0
    8.7640    7.2360  -11.8860 C   0  0  1  0  0  0  0  0  0  0  0  0
   12.0890    8.0540   -2.7810 C   0  0  0  0  0  0  0  0  0  0  0  0
   13.1610    6.8390   -0.5910 C   0  0  0  0  0  0  0  0  0  0  0  0
  1  5  1  0
  2  9  1  0
  3 20  2  0
  4  6  1  0
  6 29  2  0
  7 17  1  1
  8 11  1  0
  9 21  1  0
  9  5  1  0
 10 28  1  0
 11 13  1  0
 12 14  1  0
 12  2  1  0
 13 23  1  0
 13 19  1  0
 14  1  1  0
 15 11  2  0
 16  7  1  0
 17 14  1  0
 18 26  1  0
 18 27  1  0
 20 29  1  0
 21 22  1  0
 22 10  1  0
 24  7  1  0
 26 13  1  6
 26 24  1  0
 27 25  1  1
 27 16  1  0
 28  4  2  0
 28  3  1  0
M  END
>  <GenAI_Model>  (24) 
DiffSBDD

>  <Protein>  (24) 
generic_title2

>  <num_sample>  (24) 
50

$$$$
DiffSBDD_24_num_sample_50
     RDKit          3D

 40 46  0  0  0  0  0  0  0  0999 V2000
    8.9240    5.0370  -10.6700 N   0  0  0  0  0  0  0  0  0  0  0  0
   12.5000    6.5350   -2.7460 C   0  0  0  0  0  0  0  0  0  0  0  0
   12.3060    8.7440   -9.0110 O   0  0  0  0  0  0  0  0  0  0  0  0
    9.0650    7.6500  -10.5890 C   0  0  2  0  0  0  0  0  0  0  0  0
    6.4020    5.7940  -13.2130 C   0  0  1  0  0  0  0  0  0  0  0  0
   10.5300    7.0790   -1.2080 C   0  0  1  0  0  0  0  0  0  0  0  0
   11.9840    7.4790   -7.2050 C   0  0  2  0  0  0  0  0  0  0  0  0
   10.5840    7.0930   -8.9500 C   0  0  0  0  0  0  0  0  0  0  0  0
    6.9390    5.1500  -14.3770 N   0  0  0  0  0  0  0  0  0  0  0  0
   11.6360    7.2790   -4.9720 N   0  0  0  0  0  0  0  0  0  0  0  0
   10.1340    6.1480   -6.6700 C   0  0  0  0  0  0  0  0  0  0  0  0
    9.4150    5.6600  -11.8880 C   0  0  0  0  0  0  0  0  0  0  0  0
    6.5640    5.1990  -11.7900 C   0  0  0  0  0  0  0  0  0  0  0  0
    9.9590    6.1170   -8.1500 C   0  0  0  0  0  0  0  0  0  0  0  0
    7.0200    5.8490  -15.5580 C   0  0  0  0  0  0  0  0  0  0  0  0
    8.2950    3.7700  -10.6730 C   0  0  0  0  0  0  0  0  0  0  0  0
    7.1430    3.7380  -14.2920 C   0  0  2  0  0  0  0  0  0  0  0  0
    8.5910    4.4560   -8.3020 O   0  0  0  0  0  0  0  0  0  0  0  0
   10.8930    7.9660   -0.1280 C   0  0  0  0  0  0  0  0  0  0  0  0
   13.2490    8.0250   -7.1100 F   0  0  0  0  0  0  0  0  0  0  0  0
    8.0430    3.4260  -13.1280 C   0  0  0  0  0  0  0  0  0  0  0  0
    8.5650    9.5710  -11.9770 C   0  0  0  0  0  0  0  0  0  0  0  0
    5.8760    6.6830  -15.4490 C   0  0  1  0  0  0  0  0  0  0  0  0
   12.5410    8.5400  -10.3170 C   0  0  0  0  0  0  0  0  0  0  0  0
    7.4370    3.9970  -11.8230 C   0  0  2  0  0  0  0  0  0  0  0  0
    8.6600    7.0510  -11.8550 C   0  0  0  0  0  0  0  0  0  0  0  0
   13.3910    7.9430   -0.4360 F   0  0  0  0  0  0  0  0  0  0  0  0
   11.8640    6.9560   -1.7110 C   0  0  2  0  0  0  0  0  0  0  0  0
    9.1910    5.2120   -8.8650 C   0  0  0  0  0  0  0  0  0  0  0  0
    9.1620    9.1210  -10.6940 C   0  0  0  0  0  0  0  0  0  0  0  0
   11.4670    7.8530   -8.4100 C   0  0  2  0  0  0  0  0  0  0  0  0
   11.2380    6.9190   -6.3040 C   0  0  1  0  0  0  0  0  0  0  0  0
    7.6600    3.0320  -15.4720 C   0  0  0  0  0  0  0  0  0  0  0  0
    5.7010    7.3470  -13.7950 S   0  0  0  0  0  0  0  0  0  0  0  0
   11.0260    7.0690   -3.9620 C   0  0  1  0  0  0  0  0  0  0  0  0
   10.3570    7.2250  -10.1770 O   0  0  0  0  0  0  0  0  0  0  0  0
   12.2310    7.6570   -0.6000 C   0  0  1  0  0  0  0  0  0  0  0  0
    5.1830    7.4110  -17.0460 Cl  0  0  0  0  0  0  0  0  0  0  0  0
   11.6330    5.8630   -3.6030 C   0  0  0  0  0  0  0  0  0  0  0  0
   11.5580    8.3170   -4.2490 C   0  0  0  0  0  0  0  0  0  0  0  0
  1 29  1  0
  4 30  1  6
  4 36  1  0
  5 13  1  1
  6 37  1  0
  6 19  1  6
  7 20  1  1
  7 32  1  0
  8 31  1  0
  8 14  2  0
  9 15  1  0
  9 17  1  0
  9  5  1  0
 10 40  1  0
 10 35  1  0
 12 26  1  0
 12  1  1  0
 14 11  1  0
 15 23  1  0
 16  1  1  0
 17 33  1  6
 17 21  1  0
 21 25  1  0
 22 30  1  0
 23 38  1  6
 23 34  1  0
 24  3  1  0
 25 13  1  0
 25 16  1  1
 26  4  1  0
 28  2  1  6
 28  6  1  0
 28 37  1  0
 29 18  2  0
 29 14  1  0
 31  3  1  6
 31  7  1  0
 32 11  1  0
 32 10  1  1
 34  5  1  0
 35 39  1  1
 36  8  1  0
 37 27  1  1
 37 19  1  0
 39  2  1  0
 40 35  1  0
M  END
>  <GenAI_Model>  (25) 
DiffSBDD

>  <Protein>  (25) 
generic_title2

>  <num_sample>  (25) 
50

$$$$
DiffSBDD_25_num_sample_50
     RDKit          3D

 36 41  0  0  0  0  0  0  0  0999 V2000
   11.4500    6.8880   -1.6420 C   0  0  2  0  0  0  0  0  0  0  0  0
    6.0000    7.1330  -14.2180 C   0  0  0  0  0  0  0  0  0  0  0  0
    8.3530    5.4840   -8.7210 C   0  0  0  0  0  0  0  0  0  0  0  0
    6.5810    5.0430  -15.3080 C   0  0  0  0  0  0  0  0  0  0  0  0
    9.0890    6.9090   -0.2480 S   0  0  0  0  0  0  0  0  0  0  0  0
    7.0010    6.9170  -13.2800 C   0  0  0  0  0  0  0  0  0  0  0  0
    8.8030    5.3800  -12.3250 C   0  0  2  0  0  0  0  0  0  0  0  0
    5.8760    6.1580  -15.1090 C   0  0  0  0  0  0  0  0  0  0  0  0
    9.5970    6.6190  -11.8370 C   0  0  0  0  0  0  0  0  0  0  0  0
   13.0930    8.6350   -1.8550 C   0  0  2  0  0  0  0  0  0  0  0  0
   10.1230    6.1710   -1.6740 C   0  0  0  0  0  0  0  0  0  0  0  0
   12.0760    8.6570   -4.9970 C   0  0  0  0  0  0  0  0  0  0  0  0
   10.3520    6.4150   -6.4200 C   0  0  0  0  0  0  0  0  0  0  0  0
   10.6940    6.6280   -7.5640 C   0  0  0  0  0  0  0  0  0  0  0  0
   11.6750    7.4790   -4.7480 N   0  0  0  0  0  0  0  0  0  0  0  0
   14.3180    8.5070   -1.4090 F   0  0  0  0  0  0  0  0  0  0  0  0
   12.4200    9.0940   -6.1050 O   0  0  0  0  0  0  0  0  0  0  0  0
    7.4010    4.7300  -14.1960 C   0  0  0  0  0  0  0  0  0  0  0  0
    9.5220    6.4090   -8.5620 N   0  0  0  0  0  0  0  0  0  0  0  0
    7.6540    5.7060  -13.2400 C   0  0  0  0  0  0  0  0  0  0  0  0
   11.0480    8.1610   -0.9900 C   0  0  1  0  0  0  0  0  0  0  0  0
   10.2010    8.0830    0.1990 O   0  0  0  0  0  0  0  0  0  0  0  0
   13.0340    9.7580   -2.9510 C   0  0  0  0  0  0  0  0  0  0  0  0
    7.7700    2.6360  -15.4090 C   0  0  0  0  0  0  0  0  0  0  0  0
    7.8930    3.3300  -14.1700 O   0  0  0  0  0  0  0  0  0  0  0  0
    4.7400    6.6540  -16.4940 Cl  0  0  0  0  0  0  0  0  0  0  0  0
   12.2850    9.0440   -0.6820 C   0  0  1  0  0  0  0  0  0  0  0  0
    9.2110    6.6370  -10.4600 N   0  0  0  0  0  0  0  0  0  0  0  0
   11.7780    6.4740   -5.9890 C   0  0  0  0  0  0  0  0  0  0  0  0
   12.5000    7.2070   -2.4450 C   0  0  2  0  0  0  0  0  0  0  0  0
   12.8440    9.2050    0.4690 C   0  0  0  0  0  0  0  0  0  0  0  0
   11.7030    6.5960   -3.5960 C   0  0  0  0  0  0  0  0  0  0  0  0
    9.3390    7.4750   -9.4170 C   0  0  0  0  0  0  0  0  0  0  0  0
    8.6740    5.2430  -10.1490 C   0  0  2  0  0  0  0  0  0  0  0  0
   12.0200    9.4980   -3.8280 O   0  0  0  0  0  0  0  0  0  0  0  0
    8.2330    4.7090  -11.1830 O   0  0  0  0  0  0  0  0  0  0  0  0
  1 11  1  6
  1 21  1  0
  2  6  2  0
  3 19  1  0
  4  8  2  0
  4 18  1  0
  5 22  1  0
  6 20  1  0
  7 20  1  6
  7  9  1  0
  7 36  1  0
  8  2  1  0
 10 16  1  1
 10 27  1  0
 11  5  1  0
 12 15  1  0
 12 35  1  0
 13 29  1  0
 14 13  1  0
 15 32  1  0
 17 12  2  0
 18 25  1  0
 18 20  2  0
 19 14  1  0
 21 27  1  0
 21 22  1  1
 23 10  1  0
 24 25  1  0
 26  8  1  0
 27 31  1  1
 28  9  1  0
 28 34  1  0
 28 33  1  0
 29 15  1  0
 30 32  1  6
 30 10  1  0
 30  1  1  0
 33 19  1  0
 34  3  1  1
 35 23  1  0
 36 34  1  0
M  END
>  <GenAI_Model>  (26) 
DiffSBDD

>  <Protein>  (26) 
generic_title2

>  <num_sample>  (26) 
50

$$$$
DiffSBDD_26_num_sample_50
     RDKit          3D

 39 45  0  0  0  0  0  0  0  0999 V2000
    9.5690    6.7250  -10.1970 C   0  0  2  0  0  0  0  0  0  0  0  0
   10.8390    8.0330   -2.7220 S   0  0  1  0  0  0  0  0  0  0  0  0
    6.5350    4.1700  -15.8880 C   0  0  0  0  0  0  0  0  0  0  0  0
   10.4230    8.0190   -5.7250 C   0  0  0  0  0  0  0  0  0  0  0  0
   11.1130    7.4000   -8.4560 C   0  0  0  0  0  0  0  0  0  0  0  0
   12.1670    9.6510   -4.1230 F   0  0  0  0  0  0  0  0  0  0  0  0
    9.4720    5.6720  -12.5050 C   0  0  0  0  0  0  0  0  0  0  0  0
    8.8000    5.8930   -9.4770 C   0  0  0  0  0  0  0  0  0  0  0  0
   12.3680    4.7300   -3.2470 F   0  0  0  0  0  0  0  0  0  0  0  0
    6.5600    5.8860  -12.5860 C   0  0  0  0  0  0  0  0  0  0  0  0
    9.1540    7.1580   -6.1200 C   0  0  0  0  0  0  0  0  0  0  0  0
   10.3870    6.0250  -11.3090 C   0  0  0  0  0  0  0  0  0  0  0  0
   12.5050    9.9600   -0.6220 C   0  0  0  0  0  0  0  0  0  0  0  0
    8.0200    5.5750  -12.3620 O   0  0  0  0  0  0  0  0  0  0  0  0
    8.2540    5.4070  -17.2510 C   0  0  0  0  0  0  0  0  0  0  0  0
    9.9000    9.0940   -9.9590 C   0  0  0  0  0  0  0  0  0  0  0  0
    9.6300    6.7660   -8.5690 C   0  0  1  0  0  0  0  0  0  0  0  0
   10.5470    6.6400   -1.6780 C   0  0  0  0  0  0  0  0  0  0  0  0
    6.6820    5.1270  -13.8810 C   0  0  2  0  0  0  0  0  0  0  0  0
   12.0900    8.5720   -0.4700 C   0  0  2  0  0  0  0  0  0  0  0  0
   11.9820    6.7610   -4.4120 C   0  0  1  0  0  0  0  0  0  0  0  0
   12.9020    7.6570   -0.5560 C   0  0  0  0  0  0  0  0  0  0  0  0
    9.2680    4.5410   -9.2980 C   0  0  0  0  0  0  0  0  0  0  0  0
    9.0290    8.1100  -10.6660 C   0  0  0  0  0  0  0  0  0  0  0  0
    6.2550    7.3930  -12.8150 C   0  0  0  0  0  0  0  0  0  0  0  0
   12.4450    6.0930   -3.2790 C   0  0  2  0  0  0  0  0  0  0  0  0
    9.4550    6.0810   -7.1790 C   0  0  0  0  0  0  0  0  0  0  0  0
    7.4400    5.8770  -14.9370 O   0  0  0  0  0  0  0  0  0  0  0  0
   12.1030    7.4030   -1.5890 C   0  0  2  0  0  0  0  0  0  0  0  0
   11.7910    9.3330   -3.0490 C   0  0  1  0  0  0  0  0  0  0  0  0
   13.1300    6.6280   -2.3350 O   0  0  0  0  0  0  0  0  0  0  0  0
    8.1610    4.7200   -9.3450 C   0  0  0  0  0  0  0  0  0  0  0  0
    6.1990    4.1250  -14.4920 C   0  0  0  0  0  0  0  0  0  0  0  0
   12.0840   10.4090   -2.1150 C   0  0  0  0  0  0  0  0  0  0  0  0
   11.2100    8.7230   -9.1520 C   0  0  0  0  0  0  0  0  0  0  0  0
    7.1700    5.3870  -16.1320 N   0  0  0  0  0  0  0  0  0  0  0  0
    5.6500    5.2730  -11.5500 C   0  0  0  0  0  0  0  0  0  0  0  0
   11.9570    5.5690   -5.4630 F   0  0  0  0  0  0  0  0  0  0  0  0
   10.8600    7.5960   -4.3280 C   0  0  1  0  0  0  0  0  0  0  0  0
  1 12  1  6
  1  8  1  0
  1 17  1  0
  2 18  1  1
  3 33  1  0
  7 14  1  0
  7 12  1  0
  8 32  1  0
  8 23  1  0
  8 17  1  0
 10 14  1  0
 10 37  1  0
 11  4  1  0
 15 36  1  0
 16 35  1  0
 17  5  1  0
 17 27  1  1
 19 10  1  6
 20 13  1  6
 21 38  1  6
 21 39  1  0
 21 26  1  0
 22 20  1  0
 24  1  1  0
 24 16  1  0
 25 10  1  0
 26  9  1  6
 26 31  1  0
 27 11  1  0
 28 19  1  0
 29 18  1  0
 29 22  1  1
 29 20  1  0
 30  6  1  6
 30  2  1  0
 30 34  1  0
 31 29  1  0
 32 23  1  0
 33 19  1  0
 34 13  1  0
 35  5  1  0
 36  3  1  0
 36 28  1  0
 39  4  1  6
 39  2  1  0
M  END
>  <GenAI_Model>  (27) 
DiffSBDD

>  <Protein>  (27) 
generic_title2

>  <num_sample>  (27) 
50

$$$$
DiffSBDD_27_num_sample_50
     RDKit          3D

 44 50  0  0  0  0  0  0  0  0999 V2000
    6.6600    2.3320  -14.8830 C   0  0  0  0  0  0  0  0  0  0  0  0
   12.3840    7.6850   -8.2960 C   0  0  0  0  0  0  0  0  0  0  0  0
    8.2960    4.0830   -8.9920 C   0  0  0  0  0  0  0  0  0  0  0  0
   11.5640   11.2200   -5.8720 O   0  0  0  0  0  0  0  0  0  0  0  0
   11.7660   10.1470   -4.9560 C   0  0  0  0  0  0  0  0  0  0  0  0
    5.8860    7.3750  -13.0970 C   0  0  0  0  0  0  0  0  0  0  0  0
   12.3600    9.5240   -1.7560 C   0  0  0  0  0  0  0  0  0  0  0  0
   11.3030    5.8750   -5.7230 C   0  0  0  0  0  0  0  0  0  0  0  0
   10.2660    5.7070  -13.2020 O   0  0  0  0  0  0  0  0  0  0  0  0
   12.8330    7.8590   -3.0600 O   0  0  0  0  0  0  0  0  0  0  0  0
    6.2180    3.4820  -13.3000 C   0  0  2  0  0  0  0  0  0  0  0  0
    8.3160    7.1370  -13.1860 O   0  0  0  0  0  0  0  0  0  0  0  0
   12.5410    9.2550   -6.1630 C   0  0  2  0  0  0  0  0  0  0  0  0
    8.2450    4.3990   -7.4740 C   0  0  0  0  0  0  0  0  0  0  0  0
   11.8340    9.1780   -3.0390 C   0  0  1  0  0  0  0  0  0  0  0  0
   10.0220    7.9380  -10.0290 C   0  0  0  0  0  0  0  0  0  0  0  0
   13.4010    6.3050   -0.2910 F   0  0  0  0  0  0  0  0  0  0  0  0
   12.0810    9.2290   -6.7900 O   0  0  0  0  0  0  0  0  0  0  0  0
   13.4330    8.3560   -0.0980 F   0  0  0  0  0  0  0  0  0  0  0  0
    6.2580    5.2190  -14.1400 C   0  0  2  0  0  0  0  0  0  0  0  0
    9.8090    6.5750   -6.0040 S   0  0  1  0  0  0  0  0  0  0  0  0
    7.4100    4.4570  -13.7670 O   0  0  0  0  0  0  0  0  0  0  0  0
   11.4700   10.2020   -3.9790 N   0  0  0  0  0  0  0  0  0  0  0  0
    9.3820    7.2570   -8.7610 C   0  0  2  0  0  0  0  0  0  0  0  0
    5.9600    5.9280  -12.8110 C   0  0  0  0  0  0  0  0  0  0  0  0
    7.1760    7.5970  -14.4950 S   0  0  1  0  0  0  0  0  0  0  0  0
    9.3820    6.3770  -12.3750 S   0  0  1  0  0  0  0  0  0  0  0  0
    6.3860    6.2380  -15.1980 C   0  0  2  0  0  0  0  0  0  0  0  0
   12.9500    8.6700   -1.4100 C   0  0  0  0  0  0  0  0  0  0  0  0
    9.0730    5.1440  -11.2900 C   0  0  0  0  0  0  0  0  0  0  0  0
   11.3730    8.4260   -7.6040 C   0  0  2  0  0  0  0  0  0  0  0  0
   10.0410    7.8930   -7.2810 C   0  0  2  0  0  0  0  0  0  0  0  0
   12.2740    6.5780   -1.1480 O   0  0  0  0  0  0  0  0  0  0  0  0
    5.3260    6.4840  -15.9590 C   0  0  0  0  0  0  0  0  0  0  0  0
   12.4900    8.1850   -5.1210 C   0  0  2  0  0  0  0  0  0  0  0  0
    9.2530    5.0150   -9.7880 C   0  0  1  0  0  0  0  0  0  0  0  0
    9.7370    7.7440  -11.2980 C   0  0  0  0  0  0  0  0  0  0  0  0
   12.3750    6.4720   -2.5410 C   0  0  0  0  0  0  0  0  0  0  0  0
   12.1650    7.0140   -5.6430 C   0  0  0  0  0  0  0  0  0  0  0  0
   12.2650    8.6020   -3.5770 C   0  0  0  0  0  0  0  0  0  0  0  0
    6.6650    2.0650  -13.3920 C   0  0  0  0  0  0  0  0  0  0  0  0
    7.4520    5.8440  -16.1060 O   0  0  0  0  0  0  0  0  0  0  0  0
    9.4400    5.9720   -8.5390 C   0  0  2  0  0  0  0  0  0  0  0  0
    9.2550    5.5550   -7.0260 C   0  0  2  0  0  0  0  0  0  0  0  0
  1 41  1  0
  3 14  1  0
  4  5  2  0
  5 23  1  0
  6 25  1  0
  7 29  1  0
  8 39  1  0
 10 38  1  0
 11 41  1  6
 12 27  1  0
 13 18  1  6
 13 35  1  0
 13  5  1  0
 44 14  1  1
 15  7  1  1
 20 22  1  0
 20 11  1  0
 20 25  1  1
 21  8  1  6
 22 11  1  0
 23 15  1  0
 24 16  1  6
 24 43  1  0
 24 32  1  0
 26 12  1  1
 26  6  1  0
 27  9  1  6
 27 37  1  0
 27 30  1  0
 28 34  1  6
 28 26  1  0
 28 20  1  0
 29 19  1  0
 36 30  1  6
 31  2  1  1
 32 31  1  6
 31 18  1  0
 32 21  1  0
 33 17  1  0
 35 40  1  0
 36  3  1  0
 43 36  1  6
 37 16  1  0
 38 33  1  0
 35 39  1  6
 40 10  1  0
 40 15  1  0
 42 28  1  0
 43 44  1  0
 44 21  1  0
M  END
>  <GenAI_Model>  (28) 
DiffSBDD

>  <Protein>  (28) 
generic_title2

>  <num_sample>  (28) 
50

$$$$
DiffSBDD_28_num_sample_50
     RDKit          3D

 37 39  0  0  0  0  0  0  0  0999 V2000
    9.6780    6.4200  -11.5050 N   0  0  0  0  0  0  0  0  0  0  0  0
   11.1030    5.6690   -7.0220 C   0  0  0  0  0  0  0  0  0  0  0  0
    6.0830    5.7870  -17.2420 C   0  0  2  0  0  0  0  0  0  0  0  0
   10.3110    7.1480  -12.1270 C   0  0  0  0  0  0  0  0  0  0  0  0
   11.8300    7.5590   -3.9920 N   0  0  0  0  0  0  0  0  0  0  0  0
    6.1010    3.9240  -11.1040 O   0  0  0  0  0  0  0  0  0  0  0  0
    9.9600    6.7240  -10.0540 C   0  0  1  0  0  0  0  0  0  0  0  0
    8.1650    5.1030  -10.3450 N   0  0  0  0  0  0  0  0  0  0  0  0
   11.3190    6.2010   -2.3540 F   0  0  0  0  0  0  0  0  0  0  0  0
    5.8960    7.3910  -15.3000 C   0  0  0  0  0  0  0  0  0  0  0  0
    8.5290    5.5710   -8.3630 O   0  0  0  0  0  0  0  0  0  0  0  0
    5.3240    6.9920  -16.6880 C   0  0  0  0  0  0  0  0  0  0  0  0
    6.2290    6.0190  -14.7590 C   0  0  1  0  0  0  0  0  0  0  0  0
    6.6340    5.1950  -15.8910 C   0  0  0  0  0  0  0  0  0  0  0  0
    9.3690    7.0800   -6.3110 O   0  0  0  0  0  0  0  0  0  0  0  0
   11.9300    8.0210   -6.4270 N   0  0  0  0  0  0  0  0  0  0  0  0
   12.3870    9.4870   -2.4680 N   0  0  0  0  0  0  0  0  0  0  0  0
   11.6140    8.2360   -5.2000 C   0  0  0  0  0  0  0  0  0  0  0  0
   10.3360    6.8820   -6.9760 C   0  0  0  0  0  0  0  0  0  0  0  0
   10.7730    7.7420   -9.9550 C   0  0  0  0  0  0  0  0  0  0  0  0
   12.2980    7.3230   -1.6730 C   0  0  2  0  0  0  0  0  0  0  0  0
   11.3270    8.4330   -8.7620 C   0  0  0  0  0  0  0  0  0  0  0  0
   12.2700    7.9580    0.5520 F   0  0  0  0  0  0  0  0  0  0  0  0
    7.2250    5.1520  -12.5720 C   0  0  1  0  0  0  0  0  0  0  0  0
   13.2640    6.4370   -1.2180 F   0  0  0  0  0  0  0  0  0  0  0  0
   11.6910    9.4470   -5.3610 O   0  0  0  0  0  0  0  0  0  0  0  0
    5.1290    4.4810  -12.8920 O   0  0  0  0  0  0  0  0  0  0  0  0
   11.3180    7.8980   -7.5490 C   0  0  1  0  0  0  0  0  0  0  0  0
    6.5580    5.0320  -18.4670 C   0  0  0  0  0  0  0  0  0  0  0  0
    8.5880    5.4010  -11.6970 C   0  0  1  0  0  0  0  0  0  0  0  0
   12.5860    9.5870   -0.9890 C   0  0  0  0  0  0  0  0  0  0  0  0
    6.1690    4.6180  -12.1570 C   0  0  0  0  0  0  0  0  0  0  0  0
    8.8360    5.8260   -9.4370 C   0  0  0  0  0  0  0  0  0  0  0  0
   11.7030    6.1000   -3.7740 C   0  0  0  0  0  0  0  0  0  0  0  0
   12.2100    8.2880   -2.7410 C   0  0  0  0  0  0  0  0  0  0  0  0
   12.4170    8.4090   -0.5860 C   0  0  0  0  0  0  0  0  0  0  0  0
    7.3840    6.0520  -13.7640 C   0  0  0  0  0  0  0  0  0  0  0  0
  1  7  1  0
  2 19  1  0
  3 29  1  6
  3 12  1  0
  3 14  1  0
  4  1  1  0
  5 34  1  0
  5 35  1  0
  7 20  1  6
  7 33  1  0
  8 33  1  0
 10 13  1  0
 12 10  1  0
 13 37  1  1
 14 13  1  0
 16 18  1  0
 17 31  1  0
 18  5  1  0
 19 15  2  0
 20 22  1  0
 21 25  1  6
 21 36  1  0
 24 37  1  1
 24 32  1  0
 26 18  2  0
 27 32  2  0
 28 22  1  1
 28 19  1  0
 28 16  1  0
 30 24  1  0
 30  1  1  0
 30  8  1  1
 31 36  2  0
 32  6  1  0
 33 11  2  0
 34  9  1  0
 35 17  2  0
 35 21  1  0
 36 23  1  0
M  END
>  <GenAI_Model>  (29) 
DiffSBDD

>  <Protein>  (29) 
generic_title2

>  <num_sample>  (29) 
50

$$$$
DiffSBDD_29_num_sample_50
     RDKit          3D

 29 32  0  0  0  0  0  0  0  0999 V2000
   11.8650    7.4240   -3.7060 C   0  0  0  0  0  0  0  0  0  0  0  0
    8.8480    4.2070  -10.5320 O   0  0  0  0  0  0  0  0  0  0  0  0
    6.9570    5.6510  -14.5220 C   0  0  0  0  0  0  0  0  0  0  0  0
   11.8270    6.0300   -4.2670 C   0  0  0  0  0  0  0  0  0  0  0  0
    9.7120    5.3210  -12.4350 O   0  0  0  0  0  0  0  0  0  0  0  0
    9.7460    6.2200   -7.7650 N   0  0  0  0  0  0  0  0  0  0  0  0
    7.8070    6.0090  -13.4030 C   0  0  0  0  0  0  0  0  0  0  0  0
    5.7740    3.9670  -13.1520 C   0  0  0  0  0  0  0  0  0  0  0  0
    5.5320    5.1580  -11.1010 C   0  0  0  0  0  0  0  0  0  0  0  0
   12.2870    9.2100   -2.1930 C   0  0  0  0  0  0  0  0  0  0  0  0
   11.1590    6.2550   -7.5740 C   0  0  0  0  0  0  0  0  0  0  0  0
    9.0920    7.2060   -6.8740 C   0  0  0  0  0  0  0  0  0  0  0  0
   10.1790    6.6600  -12.3910 C   0  0  0  0  0  0  0  0  0  0  0  0
    7.8580    4.2860  -11.6390 C   0  0  1  0  0  0  0  0  0  0  0  0
   11.4820    8.3930   -4.6330 C   0  0  0  0  0  0  0  0  0  0  0  0
   10.0400    8.3460   -6.6220 C   0  0  0  0  0  0  0  0  0  0  0  0
   11.4210    6.3370   -5.9140 C   0  0  0  0  0  0  0  0  0  0  0  0
    6.3940    4.1470  -11.7320 C   0  0  2  0  0  0  0  0  0  0  0  0
   12.2580    7.8220   -2.4420 C   0  0  0  0  0  0  0  0  0  0  0  0
    8.5520    5.3330   -9.6070 C   0  0  0  0  0  0  0  0  0  0  0  0
   11.5730    9.7050   -4.3760 N   0  0  0  0  0  0  0  0  0  0  0  0
    8.4710    5.0000  -12.7340 C   0  0  2  0  0  0  0  0  0  0  0  0
    5.6530    5.2760  -13.9490 C   0  0  0  0  0  0  0  0  0  0  0  0
   11.0070    7.7940   -5.7800 N   0  0  0  0  0  0  0  0  0  0  0  0
   11.9310   10.1000   -3.1410 C   0  0  0  0  0  0  0  0  0  0  0  0
   12.9070    6.0590   -0.8210 N   0  0  0  0  0  0  0  0  0  0  0  0
    8.8780    5.0380   -8.1540 C   0  0  0  0  0  0  0  0  0  0  0  0
   12.6940    6.8820   -1.4830 C   0  0  0  0  0  0  0  0  0  0  0  0
   11.6330    6.6820  -13.0180 C   0  0  0  0  0  0  0  0  0  0  0  0
  1 19  2  0
  2 20  1  0
  3 23  1  0
  3  7  1  0
  4  1  1  0
  5 13  1  0
  6 11  1  0
  6 12  1  0
  7 22  1  0
  8 18  1  0
 12 16  1  0
 14  2  1  1
 15 21  2  0
 15  1  1  0
 16 24  1  0
 17 11  1  0
 17 24  1  0
 17  4  1  0
 18 14  1  0
 18  9  1  6
 19 10  1  0
 19 28  1  0
 20 27  1  0
 21 25  1  0
 22  5  1  1
 22 14  1  0
 23  8  1  0
 24 15  1  0
 25 10  2  0
 27  6  1  0
 28 26  3  0
 29 13  1  0
M  END
>  <GenAI_Model>  (30) 
DiffSBDD

>  <Protein>  (30) 
generic_title2

>  <num_sample>  (30) 
50

$$$$
DiffSBDD_30_num_sample_50
     RDKit          3D

 28 30  0  0  0  0  0  0  0  0999 V2000
    9.0830    5.5570   -9.7980 C   0  0  1  0  0  0  0  0  0  0  0  0
    9.6880    8.6540  -10.3030 O   0  0  0  0  0  0  0  0  0  0  0  0
   12.1640    6.9040   -2.6470 C   0  0  0  0  0  0  0  0  0  0  0  0
    9.9460    6.5350   -9.4150 N   0  0  0  0  0  0  0  0  0  0  0  0
    8.8610    5.1070   -7.2390 C   0  0  0  0  0  0  0  0  0  0  0  0
   11.8380    8.2370   -4.7210 C   0  0  0  0  0  0  0  0  0  0  0  0
   11.2570    7.4360  -11.1150 O   0  0  0  0  0  0  0  0  0  0  0  0
   12.1050    9.4120   -3.9390 C   0  0  0  0  0  0  0  0  0  0  0  0
    5.5440    7.9930  -15.1200 C   0  0  0  0  0  0  0  0  0  0  0  0
    8.2230    3.2660  -12.9780 C   0  0  0  0  0  0  0  0  0  0  0  0
   10.3590    7.5850  -10.3200 C   0  0  0  0  0  0  0  0  0  0  0  0
   11.7870    6.9460   -4.0530 C   0  0  0  0  0  0  0  0  0  0  0  0
   12.5340    8.1270   -1.9330 C   0  0  0  0  0  0  0  0  0  0  0  0
   12.9420    7.9860   -0.6900 F   0  0  0  0  0  0  0  0  0  0  0  0
    7.1270    6.5230  -14.3820 O   0  0  0  0  0  0  0  0  0  0  0  0
    8.2640    6.1480  -12.1730 C   0  0  0  0  0  0  0  0  0  0  0  0
    7.7870    4.4180  -13.9610 C   0  0  0  0  0  0  0  0  0  0  0  0
   11.4270    8.2310   -5.9580 O   0  0  0  0  0  0  0  0  0  0  0  0
    8.7070    5.2050  -11.1920 C   0  0  0  0  0  0  0  0  0  0  0  0
   10.0850    8.7790   -6.3130 C   0  0  0  0  0  0  0  0  0  0  0  0
    9.1770    8.3040   -7.0350 C   0  0  0  0  0  0  0  0  0  0  0  0
   12.4240    9.3320   -2.6090 C   0  0  0  0  0  0  0  0  0  0  0  0
    8.6990    4.6880   -8.6640 C   0  0  0  0  0  0  0  0  0  0  0  0
    6.2810    7.5220  -13.9080 C   0  0  0  0  0  0  0  0  0  0  0  0
   10.4450    6.3520   -7.9940 C   0  0  0  0  0  0  0  0  0  0  0  0
    9.3680    6.5310   -7.0110 C   0  0  2  0  0  0  0  0  0  0  0  0
    7.7410    5.6940  -13.5680 C   0  0  0  0  0  0  0  0  0  0  0  0
    8.6300    3.7390  -11.5520 C   0  0  0  0  0  0  0  0  0  0  0  0
  1 19  1  6
  1  4  1  0
  1 23  1  0
  3 13  2  0
  4 25  1  0
  5 26  1  0
  6 12  2  0
  6  8  1  0
  7 11  2  0
  8 22  2  0
  9 24  1  0
 10 28  2  0
 11  2  1  0
 11  4  1  0
 12  3  1  0
 13 14  1  0
 15 24  1  0
 15 27  1  0
 16 19  2  0
 17 27  2  0
 17 10  1  0
 18  6  1  0
 20 18  1  0
 21 20  1  0
 22 13  1  0
 23  5  2  0
 25 26  1  0
 26 21  1  6
 27 16  1  0
 28 19  1  0
M  END
>  <GenAI_Model>  (31) 
DiffSBDD

>  <Protein>  (31) 
generic_title2

>  <num_sample>  (31) 
50

$$$$
DiffSBDD_31_num_sample_50
     RDKit          3D

 34 39  0  0  0  0  0  0  0  0999 V2000
   12.6650    7.6420   -1.5610 C   0  0  0  0  0  0  0  0  0  0  0  0
   11.9420    8.4220   -4.0570 C   0  0  0  0  0  0  0  0  0  0  0  0
    4.7330    5.0750  -11.3360 C   0  0  0  0  0  0  0  0  0  0  0  0
   10.4980    7.1590  -11.3790 C   0  0  0  0  0  0  0  0  0  0  0  0
    7.5450    5.9660  -11.2040 C   0  0  0  0  0  0  0  0  0  0  0  0
    9.3510    6.5210   -7.2780 C   0  0  0  0  0  0  0  0  0  0  0  0
    7.3480    5.2440  -13.6320 C   0  0  2  0  0  0  0  0  0  0  0  0
   10.8540   10.2920   -5.4670 C   0  0  0  0  0  0  0  0  0  0  0  0
   13.2640    7.3010   -0.4630 F   0  0  0  0  0  0  0  0  0  0  0  0
   12.6440    9.0370   -1.8450 C   0  0  0  0  0  0  0  0  0  0  0  0
   11.7020    9.0550   -5.4710 C   0  0  0  0  0  0  0  0  0  0  0  0
    9.1380    5.8630   -9.6450 C   0  0  0  0  0  0  0  0  0  0  0  0
   12.0540    7.0820   -8.1280 C   0  0  0  0  0  0  0  0  0  0  0  0
   12.7160    7.5580   -6.8950 C   0  0  0  0  0  0  0  0  0  0  0  0
   10.1760    7.3550   -6.4270 C   0  0  0  0  0  0  0  0  0  0  0  0
   12.2130    9.4190   -3.0960 C   0  0  0  0  0  0  0  0  0  0  0  0
    8.5800    4.8040  -13.2510 F   0  0  0  0  0  0  0  0  0  0  0  0
   12.3080    6.7200   -2.4570 C   0  0  0  0  0  0  0  0  0  0  0  0
   11.8880    7.0850   -3.7470 C   0  0  0  0  0  0  0  0  0  0  0  0
    5.5230    4.6970  -12.3080 C   0  0  0  0  0  0  0  0  0  0  0  0
   11.4990    7.9550   -6.2840 N   0  0  0  0  0  0  0  0  0  0  0  0
   11.2430    7.9180  -10.3520 C   0  0  0  0  0  0  0  0  0  0  0  0
    6.7320    6.3070  -14.5400 C   0  0  0  0  0  0  0  0  0  0  0  0
    9.0510    6.6570  -11.0290 C   0  0  1  0  0  0  0  0  0  0  0  0
    6.4670    7.4180  -13.6680 O   0  0  0  0  0  0  0  0  0  0  0  0
   11.8370   10.2860   -6.4110 C   0  0  0  0  0  0  0  0  0  0  0  0
    8.0930    4.9540   -9.1490 C   0  0  0  0  0  0  0  0  0  0  0  0
    6.6700    5.3810  -12.3940 C   0  0  0  0  0  0  0  0  0  0  0  0
    6.8150    3.6410  -14.1200 C   0  0  2  0  0  0  0  0  0  0  0  0
    7.4050    3.8130  -15.5250 O   0  0  0  0  0  0  0  0  0  0  0  0
    9.3320    4.4730   -9.8620 C   0  0  0  0  0  0  0  0  0  0  0  0
    9.5650    6.9090   -8.7180 C   0  0  2  0  0  0  0  0  0  0  0  0
   10.8480    7.5560   -8.9950 N   0  0  0  0  0  0  0  0  0  0  0  0
    5.4660    3.4900  -13.3710 C   0  0  0  0  0  0  0  0  0  0  0  0
  1  9  1  0
  2 19  1  0
  2 16  2  0
 24  4  1  6
  4 22  1  0
  6 15  1  0
  7 17  1  1
  7 28  1  0
 10  1  2  0
 11  8  1  0
 11  2  1  0
 12 27  1  0
 12 32  1  0
 13 14  1  0
 15 21  1  0
 16 10  1  0
 18  1  1  0
 19 18  2  0
 20  3  2  0
 21 14  1  0
 21 11  1  0
 23 25  1  0
 23  7  1  0
 24  5  1  0
 24 12  1  0
 26 11  1  0
 26  8  1  0
 28 20  1  0
 28  5  2  3
 29 30  1  6
 29  7  1  0
 29 34  1  0
 31 12  1  0
 31 27  1  0
 32  6  1  1
 33 22  1  0
 33 32  1  0
 33 13  1  0
 34 20  1  0
M  END
>  <GenAI_Model>  (32) 
DiffSBDD

>  <Protein>  (32) 
generic_title2

>  <num_sample>  (32) 
50

$$$$
DiffSBDD_32_num_sample_50
     RDKit          3D

 29 31  0  0  0  0  0  0  0  0999 V2000
   12.6650    9.8510   -3.7780 C   0  0  0  0  0  0  0  0  0  0  0  0
   12.2340    8.5360   -1.3240 F   0  0  0  0  0  0  0  0  0  0  0  0
    8.7950    5.4460  -11.3170 N   0  0  0  0  0  0  0  0  0  0  0  0
    6.3800    3.3160  -12.7100 C   0  0  0  0  0  0  0  0  0  0  0  0
    9.6680    6.1710   -9.1740 C   0  0  0  0  0  0  0  0  0  0  0  0
   10.9590    6.4420   -6.2740 C   0  0  0  0  0  0  0  0  0  0  0  0
   11.2500    9.8810   -8.2620 C   0  0  0  0  0  0  0  0  0  0  0  0
    7.8470    5.2140  -12.3910 O   0  0  0  0  0  0  0  0  0  0  0  0
   11.4540    7.9230   -9.7680 C   0  0  1  0  0  0  0  0  0  0  0  0
    8.5450    3.0130  -12.6830 O   0  0  0  0  0  0  0  0  0  0  0  0
    7.6780    3.8230  -12.5540 C   0  0  0  0  0  0  0  0  0  0  0  0
    9.4730    6.6870  -11.3490 C   0  0  0  0  0  0  0  0  0  0  0  0
    9.6660    4.8830   -8.5180 C   0  0  0  0  0  0  0  0  0  0  0  0
    8.4480    5.8790   -8.3860 C   0  0  0  0  0  0  0  0  0  0  0  0
   12.1510    8.4520   -3.6110 C   0  0  1  0  0  0  0  0  0  0  0  0
   10.5280    6.5500  -12.2770 C   0  0  0  0  0  0  0  0  0  0  0  0
    8.7410    7.9790  -11.8620 C   0  0  0  0  0  0  0  0  0  0  0  0
   11.7910    7.7870   -4.7980 C   0  0  0  0  0  0  0  0  0  0  0  0
   11.2970    7.7470   -6.8610 C   0  0  0  0  0  0  0  0  0  0  0  0
   11.3030    6.4180   -4.9040 C   0  0  0  0  0  0  0  0  0  0  0  0
   11.4860    6.5620   -2.2120 O   0  0  0  0  0  0  0  0  0  0  0  0
   12.1550    7.7180   -2.3490 C   0  0  0  0  0  0  0  0  0  0  0  0
   11.8520    8.4970   -5.8560 O   0  0  0  0  0  0  0  0  0  0  0  0
   11.5970    8.3430   -8.1740 C   0  0  2  0  0  0  0  0  0  0  0  0
   12.6150    7.8290   -8.9070 C   0  0  0  0  0  0  0  0  0  0  0  0
   12.8760    6.5800   -2.2690 F   0  0  0  0  0  0  0  0  0  0  0  0
   10.1400    6.9710   -9.8660 C   0  0  1  0  0  0  0  0  0  0  0  0
    5.5790    4.2780  -11.6140 C   0  0  0  0  0  0  0  0  0  0  0  0
   12.1490   10.6460   -2.6050 F   0  0  0  0  0  0  0  0  0  0  0  0
  1 29  1  0
  4 11  1  0
  4 28  1  0
  5 13  1  0
  5 14  1  0
  6 20  1  0
  8  3  1  0
  9 27  1  0
  9 25  1  1
  9 24  1  0
 10 11  2  0
 11  8  1  0
 12  3  1  0
 13 14  1  0
 15  1  1  6
 15 22  1  0
 16 12  1  0
 17 12  1  0
 18 15  1  0
 19  6  2  0
 19 23  1  0
 20 18  2  0
 22 26  1  0
 22 21  1  0
 22  2  1  0
 23 18  1  0
 24  7  1  6
 24 19  1  0
 25 24  1  0
 27 12  1  6
 27  5  1  0
M  END
>  <GenAI_Model>  (33) 
DiffSBDD

>  <Protein>  (33) 
generic_title2

>  <num_sample>  (33) 
50

$$$$
DiffSBDD_33_num_sample_50
     RDKit          3D

 32 35  0  0  0  0  0  0  0  0999 V2000
   12.7920    9.1820   -3.1550 O   0  0  0  0  0  0  0  0  0  0  0  0
   11.7020    8.7580   -6.2590 C   0  0  0  0  0  0  0  0  0  0  0  0
   11.2160    6.6210   -2.9390 O   0  0  0  0  0  0  0  0  0  0  0  0
   10.7940    6.8520   -5.3980 C   0  0  0  0  0  0  0  0  0  0  0  0
    7.7310    4.4140  -12.0040 C   0  0  0  0  0  0  0  0  0  0  0  0
    8.5530    5.0960   -8.2480 C   0  0  0  0  0  0  0  0  0  0  0  0
   11.5730    8.2770  -11.1930 C   0  0  0  0  0  0  0  0  0  0  0  0
   12.8290    7.7740   -1.2740 C   0  0  0  0  0  0  0  0  0  0  0  0
   11.2040    8.2140   -7.3580 N   0  0  0  0  0  0  0  0  0  0  0  0
   10.5220    8.4720  -10.2290 C   0  0  0  0  0  0  0  0  0  0  0  0
   10.4070    6.3970  -12.0970 C   0  0  0  0  0  0  0  0  0  0  0  0
    9.4920    6.3890   -7.8740 C   0  0  0  0  0  0  0  0  0  0  0  0
   12.3930    9.1230   -5.3740 N   0  0  0  0  0  0  0  0  0  0  0  0
   11.4130    7.3620  -12.2010 C   0  0  1  0  0  0  0  0  0  0  0  0
    5.6720    5.5420  -13.6980 N   0  0  0  0  0  0  0  0  0  0  0  0
    9.5150    6.3300  -11.0830 C   0  0  0  0  0  0  0  0  0  0  0  0
   12.2310    6.5680   -1.9490 C   0  0  2  0  0  0  0  0  0  0  0  0
   11.4320    7.2540   -4.1340 C   0  0  1  0  0  0  0  0  0  0  0  0
    6.7760    5.2630  -14.7260 C   0  0  0  0  0  0  0  0  0  0  0  0
    6.0020    6.9340  -13.1030 C   0  0  0  0  0  0  0  0  0  0  0  0
    8.4540    5.2800  -11.0540 N   0  0  0  0  0  0  0  0  0  0  0  0
    9.7670    7.3030   -9.9930 C   0  0  0  0  0  0  0  0  0  0  0  0
   13.2630    5.7780   -2.3980 F   0  0  0  0  0  0  0  0  0  0  0  0
   12.1990    7.4710  -13.4470 C   0  0  0  0  0  0  0  0  0  0  0  0
   12.1970    8.5000   -4.1480 C   0  0  0  0  0  0  0  0  0  0  0  0
    9.4230    7.2560   -8.8500 O   0  0  0  0  0  0  0  0  0  0  0  0
   12.3400    9.0970   -1.8580 C   0  0  0  0  0  0  0  0  0  0  0  0
    5.4030    4.2960  -12.9260 C   0  0  0  0  0  0  0  0  0  0  0  0
    6.3180    4.2300  -11.6490 C   0  0  0  0  0  0  0  0  0  0  0  0
    9.9340    4.9300   -8.0490 C   0  0  0  0  0  0  0  0  0  0  0  0
   10.7940    7.2710   -6.7990 C   0  0  0  0  0  0  0  0  0  0  0  0
   10.1230    5.7600   -5.0270 F   0  0  0  0  0  0  0  0  0  0  0  0
  1 27  1  0
  2 13  1  0
  3 17  1  0
  4 32  1  0
  5 29  1  0
  5 21  1  0
  6 30  1  0
  6 12  1  0
  7 10  1  0
  9 31  1  0
  9  2  1  0
 10 22  1  0
 11 16  2  0
 12 31  1  0
 13 25  2  0
 14 24  1  6
 14 11  1  0
 14  7  1  0
 15 20  1  0
 15 28  1  0
 16 21  1  0
 16 22  1  0
 17 23  1  6
 17  8  1  0
 18  4  1  0
 18  3  1  1
 19 15  1  0
 22 26  1  0
 25 18  1  0
 25  1  1  0
 26 12  1  0
 27  8  1  0
 28 29  1  0
 30 12  1  0
 31  4  2  0
M  END
>  <GenAI_Model>  (34) 
DiffSBDD

>  <Protein>  (34) 
generic_title2

>  <num_sample>  (34) 
50

$$$$
DiffSBDD_34_num_sample_50
     RDKit          3D

 49 54  0  0  0  0  0  0  0  0999 V2000
    9.2280    7.8140   -7.7970 C   0  0  0  0  0  0  0  0  0  0  0  0
    8.6550    6.6870  -12.5130 C   0  0  0  0  0  0  0  0  0  0  0  0
    6.5620    4.8250  -11.0220 C   0  0  0  0  0  0  0  0  0  0  0  0
   11.3100    6.3510   -5.4980 C   0  0  0  0  0  0  0  0  0  0  0  0
    8.5790    5.1630  -15.9340 C   0  0  0  0  0  0  0  0  0  0  0  0
   11.3320    8.2870   -1.1940 C   0  0  0  0  0  0  0  0  0  0  0  0
    8.7690    8.0520  -11.8840 C   0  0  2  0  0  0  0  0  0  0  0  0
    5.7750    4.5130  -11.9510 C   0  0  0  0  0  0  0  0  0  0  0  0
   10.4040    8.8380   -5.9700 O   0  0  0  0  0  0  0  0  0  0  0  0
   12.9950    6.4180   -2.4240 C   0  0  1  0  0  0  0  0  0  0  0  0
   12.8940    8.4220    0.5340 N   0  0  0  0  0  0  0  0  0  0  0  0
   11.5880    8.8300   -5.4780 C   0  0  1  0  0  0  0  0  0  0  0  0
   12.9110    8.6920  -10.0800 O   0  0  0  0  0  0  0  0  0  0  0  0
    7.9310    5.7300  -11.4380 C   0  0  1  0  0  0  0  0  0  0  0  0
   11.6820    8.8520   -7.9590 C   0  0  0  0  0  0  0  0  0  0  0  0
   11.5410   11.2200   -5.8150 F   0  0  0  0  0  0  0  0  0  0  0  0
   11.4600   10.2150   -3.8360 C   0  0  0  0  0  0  0  0  0  0  0  0
    6.7500    5.1510  -17.6620 C   0  0  0  0  0  0  0  0  0  0  0  0
   11.8440    9.5200   -1.7340 O   0  0  0  0  0  0  0  0  0  0  0  0
    9.0700    5.2010  -10.4030 C   0  0  0  0  0  0  0  0  0  0  0  0
    8.5310    9.4240  -11.6550 C   0  0  0  0  0  0  0  0  0  0  0  0
   10.3100    7.7590  -11.1750 C   0  0  0  0  0  0  0  0  0  0  0  0
    7.6220    4.3560  -16.7090 C   0  0  2  0  0  0  0  0  0  0  0  0
    9.8220    6.2830   -5.7700 C   0  0  0  0  0  0  0  0  0  0  0  0
    6.0640    2.6840  -13.8380 O   0  0  0  0  0  0  0  0  0  0  0  0
   10.3230    7.7060   -9.7920 O   0  0  0  0  0  0  0  0  0  0  0  0
    8.1010    5.6370   -7.9390 C   0  0  0  0  0  0  0  0  0  0  0  0
    6.5690    3.5150  -14.5540 C   0  0  0  0  0  0  0  0  0  0  0  0
   12.2100   10.0350   -5.2560 C   0  0  1  0  0  0  0  0  0  0  0  0
   11.8180    7.5900   -4.9610 C   0  0  1  0  0  0  0  0  0  0  0  0
   11.5600    8.6830   -9.5150 C   0  0  0  0  0  0  0  0  0  0  0  0
   11.4530    7.4110  -11.7570 O   0  0  0  0  0  0  0  0  0  0  0  0
    7.4230    2.0050  -16.2110 O   0  0  0  0  0  0  0  0  0  0  0  0
    8.0450    5.5120  -14.5230 C   0  0  0  0  0  0  0  0  0  0  0  0
    9.3550    6.2990   -7.1690 C   0  0  1  0  0  0  0  0  0  0  0  0
   10.3280    7.2360   -0.8530 C   0  0  0  0  0  0  0  0  0  0  0  0
   11.5220    6.4030   -2.8480 C   0  0  1  0  0  0  0  0  0  0  0  0
   10.4650    6.1850   -1.9920 C   0  0  0  0  0  0  0  0  0  0  0  0
    5.7030    6.7480  -13.1020 C   0  0  0  0  0  0  0  0  0  0  0  0
   12.1990    9.1890   -3.0020 C   0  0  1  0  0  0  0  0  0  0  0  0
   12.5710    7.6930   -0.6200 C   0  0  0  0  0  0  0  0  0  0  0  0
   13.1010    6.5550   -1.1240 O   0  0  0  0  0  0  0  0  0  0  0  0
    5.7250    5.2460  -13.2910 C   0  0  1  0  0  0  0  0  0  0  0  0
    7.2020    3.1860  -15.8530 C   0  0  0  0  0  0  0  0  0  0  0  0
   11.6220    7.7460   -3.4430 C   0  0  1  0  0  0  0  0  0  0  0  0
    6.7490    4.8390  -14.2850 N   0  0  0  0  0  0  0  0  0  0  0  0
   10.4800    8.3510   -7.2110 C   0  0  2  0  0  0  0  0  0  0  0  0
    8.6580    5.1020   -8.9320 C   0  0  0  0  0  0  0  0  0  0  0  0
   13.7060    5.6730   -1.8760 C   0  0  0  0  0  0  0  0  0  0  0  0
  1 47  1  0
  1 35  1  0
  2  7  1  0
  2 14  1  0
  5 34  1  0
  6 36  1  0
  6 41  1  0
  7 21  1  6
  7 22  1  0
  8  3  1  0
 10 49  1  1
 10 42  1  0
 12  9  1  1
 12 29  1  0
 12 30  1  0
 13 31  2  0
 14  3  1  6
 14 20  1  0
 47 15  1  6
 19  6  1  0
 20 48  1  0
 22 26  1  0
 23 18  1  1
 23  5  1  0
 23 44  1  0
 24  4  1  0
 26 31  1  0
 28 46  1  0
 28 25  2  0
 29 16  1  6
 29 17  1  0
 30  4  1  6
 30 45  1  0
 31 15  1  0
 32 22  2  0
 33 44  2  0
 34 46  1  0
 35 27  1  1
 35 24  1  0
 37 10  1  0
 37 38  1  1
 38 36  1  0
 40 17  1  6
 40 19  1  0
 41 11  1  0
 43 39  1  1
 43  8  1  0
 44 28  1  0
 45 40  1  1
 45 37  1  0
 46 43  1  0
 47  9  1  0
 48 27  1  0
 49 42  1  0
M  END
>  <GenAI_Model>  (35) 
DiffSBDD

>  <Protein>  (35) 
generic_title2

>  <num_sample>  (35) 
50

$$$$
DiffSBDD_35_num_sample_50
     RDKit          3D

 28 31  0  0  0  0  0  0  0  0999 V2000
    6.4780    2.5830  -13.4370 C   0  0  0  0  0  0  0  0  0  0  0  0
    5.9450    8.3680  -16.1870 C   0  0  0  0  0  0  0  0  0  0  0  0
    6.2970    6.1060  -14.9360 C   0  0  1  0  0  0  0  0  0  0  0  0
    6.3420    4.2290  -11.6310 O   0  0  0  0  0  0  0  0  0  0  0  0
    6.7360    6.3490  -17.4260 C   0  0  0  0  0  0  0  0  0  0  0  0
   12.7520    7.6250  -10.7450 O   0  0  0  0  0  0  0  0  0  0  0  0
    6.9040    3.2460  -15.7730 O   0  0  0  0  0  0  0  0  0  0  0  0
    8.6640    5.9070  -11.0660 C   0  0  1  0  0  0  0  0  0  0  0  0
    9.1880    7.2030   -8.5170 C   0  0  1  0  0  0  0  0  0  0  0  0
    8.3990    5.9240   -8.0530 C   0  0  0  0  0  0  0  0  0  0  0  0
    5.8030    4.7290  -14.3460 C   0  0  0  0  0  0  0  0  0  0  0  0
    5.7940    6.8480  -16.3110 C   0  0  0  0  0  0  0  0  0  0  0  0
   10.0090    8.1850   -9.1950 C   0  0  1  0  0  0  0  0  0  0  0  0
    9.4460    7.2510  -11.4590 C   0  0  2  0  0  0  0  0  0  0  0  0
    4.6240    7.5550  -18.0480 C   0  0  0  0  0  0  0  0  0  0  0  0
   11.5960    7.8290  -10.9400 C   0  0  0  0  0  0  0  0  0  0  0  0
    7.1720    3.3820  -12.4140 C   0  0  2  0  0  0  0  0  0  0  0  0
   10.9180    8.8950  -10.2130 C   0  0  0  0  0  0  0  0  0  0  0  0
    6.4700    3.5170  -14.7190 C   0  0  0  0  0  0  0  0  0  0  0  0
    4.7410    4.7400  -13.7310 O   0  0  0  0  0  0  0  0  0  0  0  0
    8.2890    4.1290  -13.1580 C   0  0  0  0  0  0  0  0  0  0  0  0
    8.9430    5.2890  -12.4560 C   0  0  0  0  0  0  0  0  0  0  0  0
    5.8910    7.2020  -13.6750 Cl  0  0  0  0  0  0  0  0  0  0  0  0
   10.9310    7.1300  -11.8830 O   0  0  0  0  0  0  0  0  0  0  0  0
    9.4950    6.9560  -10.0800 C   0  0  1  0  0  0  0  0  0  0  0  0
    5.9300    6.9130  -18.6760 C   0  0  0  0  0  0  0  0  0  0  0  0
    8.3940    8.1410  -12.0630 O   0  0  0  0  0  0  0  0  0  0  0  0
    4.3530    6.8020  -16.7800 C   0  0  0  0  0  0  0  0  0  0  0  0
  1 17  1  0
  3 11  1  0
  3 23  1  1
  5 12  1  0
  7 19  2  0
  8 22  1  6
 25  8  1  1
  9 10  1  1
 11 20  2  0
 12  2  1  0
 12  3  1  0
 13 18  1  1
 13  9  1  0
 14 27  1  1
 14  8  1  0
 14 25  1  0
 15 28  1  0
 16  6  2  0
 16 18  1  0
 17  4  1  6
 19 11  1  0
 19  1  1  0
 21 22  2  3
 21 17  1  0
 24 14  1  0
 24 16  1  0
 25 13  1  0
 25  9  1  0
 26 15  1  0
 26  5  1  0
 28 12  1  0
M  END
>  <GenAI_Model>  (36) 
DiffSBDD

>  <Protein>  (36) 
generic_title2

>  <num_sample>  (36) 
50

$$$$
DiffSBDD_36_num_sample_50
     RDKit          3D

 31 34  0  0  0  0  0  0  0  0999 V2000
   12.6380    9.0410   -1.9030 C   0  0  0  0  0  0  0  0  0  0  0  0
    8.7060    8.5710  -11.9240 O   0  0  0  0  0  0  0  0  0  0  0  0
   11.0930    8.7380   -7.9720 C   0  0  0  0  0  0  0  0  0  0  0  0
    8.7640    7.3980  -11.8340 S   0  0  0  0  0  0  0  0  0  0  0  0
   12.9360    6.5450   -2.1630 C   0  0  2  0  0  0  0  0  0  0  0  0
   12.4100    9.1420   -3.4510 C   0  0  0  0  0  0  0  0  0  0  0  0
    8.0920    5.3950  -10.5330 C   0  0  1  0  0  0  0  0  0  0  0  0
   12.2740    7.8000   -4.1610 C   0  0  1  0  0  0  0  0  0  0  0  0
   11.1470    7.5380   -0.8730 F   0  0  0  0  0  0  0  0  0  0  0  0
    9.1470    4.5170  -10.6000 O   0  0  0  0  0  0  0  0  0  0  0  0
   12.0830   10.2960   -6.1480 C   0  0  0  0  0  0  0  0  0  0  0  0
   13.4200    5.2260   -1.5250 C   0  0  0  0  0  0  0  0  0  0  0  0
   12.5090    7.6780   -1.1620 C   0  0  2  0  0  0  0  0  0  0  0  0
    9.3720    7.0200   -6.9680 C   0  0  0  0  0  0  0  0  0  0  0  0
    9.4560    6.1680  -12.7290 C   0  0  0  0  0  0  0  0  0  0  0  0
   10.9410    7.3920  -10.3360 C   0  0  0  0  0  0  0  0  0  0  0  0
    7.2220    6.2150  -14.1650 C   0  0  0  0  0  0  0  0  0  0  0  0
    7.5830    4.4820  -12.7160 O   0  0  0  0  0  0  0  0  0  0  0  0
   10.9550   10.2700   -5.6890 C   0  0  0  0  0  0  0  0  0  0  0  0
   11.9080    6.4830   -3.2870 C   0  0  0  0  0  0  0  0  0  0  0  0
    8.8320    4.8310  -14.8600 C   0  0  0  0  0  0  0  0  0  0  0  0
    8.4100    6.8010  -10.2280 C   0  0  1  0  0  0  0  0  0  0  0  0
   11.4720    9.0790   -6.4650 C   0  0  0  0  0  0  0  0  0  0  0  0
    8.3110    5.4050  -13.5700 C   0  0  0  0  0  0  0  0  0  0  0  0
    9.7500    7.9560   -8.1430 C   0  0  2  0  0  0  0  0  0  0  0  0
   11.3880    7.8200   -5.5400 C   0  0  1  0  0  0  0  0  0  0  0  0
    5.9280    5.4220  -11.8550 C   0  0  0  0  0  0  0  0  0  0  0  0
    9.7830    7.0350   -9.4360 C   0  0  2  0  0  0  0  0  0  0  0  0
    6.5530    3.4340  -10.9260 C   0  0  0  0  0  0  0  0  0  0  0  0
   10.5910    6.6220   -6.0450 C   0  0  0  0  0  0  0  0  0  0  0  0
    7.0360    4.8440  -11.4510 C   0  0  0  0  0  0  0  0  0  0  0  0
  1 13  1  0
  3 23  1  0
  4  2  2  0
  4 22  1  0
  5 12  1  1
  5 13  1  0
  6  1  1  0
  7 10  1  6
 22  7  1  6
  8  6  1  1
  8 20  1  0
 11 19  1  0
 13  9  1  6
 14 30  1  0
  4 15  1  1
 17 24  1  0
 18 31  1  0
 20  5  1  0
 21 24  1  0
 22 28  1  0
 23 11  1  0
 23 19  1  0
 23 26  1  0
 24 15  1  0
 24 18  1  0
 25 28  1  0
 25  3  1  1
 25 14  1  0
 26 30  1  6
 26  8  1  0
 27 31  1  0
 28 16  1  6
 31 29  1  0
 31  7  1  0
M  END
>  <GenAI_Model>  (37) 
DiffSBDD

>  <Protein>  (37) 
generic_title2

>  <num_sample>  (37) 
50

$$$$
DiffSBDD_37_num_sample_50
     RDKit          3D

 21 23  0  0  0  0  0  0  0  0999 V2000
   13.0530    7.4650   -1.5050 C   0  0  0  0  0  0  0  0  0  0  0  0
   11.7830    8.0520   -4.7070 N   0  0  0  0  0  0  0  0  0  0  0  0
    9.0090    6.5400   -9.8280 N   0  0  0  0  0  0  0  0  0  0  0  0
   13.2580    8.7280   -0.9940 C   0  0  0  0  0  0  0  0  0  0  0  0
   12.9570    9.7840   -1.7490 C   0  0  0  0  0  0  0  0  0  0  0  0
   12.4340    9.5900   -3.0430 C   0  0  0  0  0  0  0  0  0  0  0  0
   10.6920    7.3930  -11.4410 C   0  0  0  0  0  0  0  0  0  0  0  0
   14.1570    7.5430    0.8370 C   0  0  0  0  0  0  0  0  0  0  0  0
    9.7330    7.8010  -10.3970 C   0  0  2  0  0  0  0  0  0  0  0  0
   10.6070    6.5560   -5.9170 C   0  0  0  0  0  0  0  0  0  0  0  0
    9.4580    6.2970   -8.6730 C   0  0  2  0  0  0  0  0  0  0  0  0
   11.7450    8.6810   -6.2660 S   0  0  0  0  0  0  0  0  0  0  0  0
   12.2280    8.3390   -3.4260 C   0  0  0  0  0  0  0  0  0  0  0  0
   11.1470    6.8830   -4.7850 N   0  0  0  0  0  0  0  0  0  0  0  0
   10.5780    8.3290   -9.1810 C   0  0  0  0  0  0  0  0  0  0  0  0
    9.3270    5.0000   -8.0490 C   0  0  0  0  0  0  0  0  0  0  0  0
   13.6850    8.7690    0.2760 O   0  0  0  0  0  0  0  0  0  0  0  0
   12.5660    7.1920   -2.6980 C   0  0  0  0  0  0  0  0  0  0  0  0
   12.1110   10.4710   -3.9540 O   0  0  0  0  0  0  0  0  0  0  0  0
   10.9240    7.3860   -6.9810 C   0  0  0  0  0  0  0  0  0  0  0  0
   10.0210    7.4930   -7.9970 C   0  0  2  0  0  0  0  0  0  0  0  0
  1  4  2  0
  2 13  1  0
  3 11  1  0
  4 17  1  0
  5  4  1  0
  6  5  2  0
  9  7  1  6
  9  3  1  0
  9 15  1  0
 10 14  1  0
 11 16  1  1
 11 21  1  0
 12  2  1  0
 13  6  1  0
 13 18  2  0
 14  2  1  0
 15 21  1  0
 17  8  1  0
 18  1  1  0
 19  6  1  0
 20 12  1  0
 20 10  2  0
 21 20  1  1
M  END
>  <GenAI_Model>  (38) 
DiffSBDD

>  <Protein>  (38) 
generic_title2

>  <num_sample>  (38) 
50

$$$$
DiffSBDD_38_num_sample_50
     RDKit          3D

 32 34  0  0  0  0  0  0  0  0999 V2000
    6.1610    4.5820  -13.2330 C   0  0  0  0  0  0  0  0  0  0  0  0
    5.7740    3.4900  -11.1690 O   0  0  0  0  0  0  0  0  0  0  0  0
    8.4170    4.5010   -8.8960 S   0  0  0  0  0  0  0  0  0  0  0  0
   12.7820    6.0230   -2.3090 F   0  0  0  0  0  0  0  0  0  0  0  0
   11.7660    8.9090   -4.1880 C   0  0  0  0  0  0  0  0  0  0  0  0
    6.8360    7.0240  -14.1380 C   0  0  0  0  0  0  0  0  0  0  0  0
   11.4110    6.5170   -4.3340 C   0  0  0  0  0  0  0  0  0  0  0  0
   10.2210    6.7050   -8.1020 C   0  0  0  0  0  0  0  0  0  0  0  0
    7.2030    5.5920  -13.7390 C   0  0  0  0  0  0  0  0  0  0  0  0
    9.0870    5.6200  -10.1350 C   0  0  0  0  0  0  0  0  0  0  0  0
    7.3030    5.0460  -11.2140 N   0  0  0  0  0  0  0  0  0  0  0  0
   11.1740    7.8730   -6.2470 C   0  0  0  0  0  0  0  0  0  0  0  0
    9.6160    8.0570  -10.0400 C   0  0  0  0  0  0  0  0  0  0  0  0
    6.4080    4.2900  -11.7680 C   0  0  0  0  0  0  0  0  0  0  0  0
   10.8850    6.7930   -1.5640 F   0  0  0  0  0  0  0  0  0  0  0  0
   10.3860    6.4310  -12.6320 O   0  0  0  0  0  0  0  0  0  0  0  0
   10.6320    8.0120   -7.5740 C   0  0  2  0  0  0  0  0  0  0  0  0
   11.4630    8.9540   -5.5080 O   0  0  0  0  0  0  0  0  0  0  0  0
    9.2710    8.7250   -7.3080 C   0  0  0  0  0  0  0  0  0  0  0  0
   12.4810    9.3160   -1.1310 O   0  0  0  0  0  0  0  0  0  0  0  0
   11.1440    6.6510   -5.5430 C   0  0  0  0  0  0  0  0  0  0  0  0
   13.7110    7.5830   -0.4230 N   0  0  0  0  0  0  0  0  0  0  0  0
   11.5660    8.7050   -8.5680 C   0  0  0  0  0  0  0  0  0  0  0  0
    9.4420    5.7180  -12.4690 C   0  0  0  0  0  0  0  0  0  0  0  0
   12.8300    8.1630   -1.2220 C   0  0  0  0  0  0  0  0  0  0  0  0
    8.7040    5.2760  -13.8600 C   0  0  0  0  0  0  0  0  0  0  0  0
   11.8110    7.6500   -3.5260 C   0  0  0  0  0  0  0  0  0  0  0  0
    8.4330    5.6280  -11.3760 C   0  0  2  0  0  0  0  0  0  0  0  0
    9.6360    6.8210   -9.4300 N   0  0  0  0  0  0  0  0  0  0  0  0
   11.0040    8.6560   -9.8620 C   0  0  0  0  0  0  0  0  0  0  0  0
   12.0560   10.1630   -3.6600 N   0  0  0  0  0  0  0  0  0  0  0  0
   12.0950    7.1850   -2.1410 C   0  0  0  0  0  0  0  0  0  0  0  0
  1 14  1  0
  4 32  1  0
  5 31  1  0
  5 27  1  0
  7 27  2  0
  8 17  1  0
  9  6  1  0
  9  1  1  0
 10 29  1  0
 10  3  2  0
 12 21  2  0
 12 18  1  0
 13 30  1  0
 13 29  1  0
 14 11  1  0
 14  2  2  0
 16 24  2  0
 17 19  1  1
 17 12  1  0
 18  5  1  0
 21  7  1  0
 23 17  1  0
 24 28  1  0
 25 20  2  0
 25 22  1  0
 26  9  1  0
 26 24  1  0
 27 32  1  0
 28 11  1  0
 28 10  1  1
 29  8  1  0
 30 23  1  0
 32 15  1  0
 32 25  1  0
M  END
>  <GenAI_Model>  (39) 
DiffSBDD

>  <Protein>  (39) 
generic_title2

>  <num_sample>  (39) 
50

$$$$
DiffSBDD_39_num_sample_50
     RDKit          3D

 33 36  0  0  0  0  0  0  0  0999 V2000
   10.4540    6.3430   -7.6490 C   0  0  0  0  0  0  0  0  0  0  0  0
    9.2540    8.4260   -7.0680 C   0  0  0  0  0  0  0  0  0  0  0  0
    8.8710    6.3610  -12.1600 C   0  0  1  0  0  0  0  0  0  0  0  0
   12.4480    7.4490   -7.0060 O   0  0  0  0  0  0  0  0  0  0  0  0
    7.9380    5.1070  -12.3110 C   0  0  2  0  0  0  0  0  0  0  0  0
    6.9580    5.2840  -11.1050 C   0  0  0  0  0  0  0  0  0  0  0  0
    9.4570    6.0590   -9.4280 C   0  0  1  0  0  0  0  0  0  0  0  0
   11.8700   10.2450   -4.0570 O   0  0  0  0  0  0  0  0  0  0  0  0
    6.4480    6.9850  -14.9310 C   0  0  0  0  0  0  0  0  0  0  0  0
    9.4180    8.5790  -10.1940 O   0  0  0  0  0  0  0  0  0  0  0  0
   11.7640    8.0340   -4.1690 C   0  0  0  0  0  0  0  0  0  0  0  0
    9.3050    5.6990   -8.1290 C   0  0  0  0  0  0  0  0  0  0  0  0
    7.5310    6.5320  -14.3100 N   0  0  0  0  0  0  0  0  0  0  0  0
   12.5830    9.0230   -2.0840 C   0  0  0  0  0  0  0  0  0  0  0  0
    5.7270    6.2870  -15.6590 O   0  0  0  0  0  0  0  0  0  0  0  0
   10.6060    7.8030   -7.7650 C   0  0  1  0  0  0  0  0  0  0  0  0
    9.3110    6.4420  -10.8700 N   0  0  0  0  0  0  0  0  0  0  0  0
    6.1800    4.3950  -13.9370 C   0  0  0  0  0  0  0  0  0  0  0  0
   12.0570    9.1490   -3.3040 C   0  0  0  0  0  0  0  0  0  0  0  0
    8.5510    3.7580  -12.1680 C   0  0  0  0  0  0  0  0  0  0  0  0
   12.6790    7.7520   -1.6020 C   0  0  0  0  0  0  0  0  0  0  0  0
   11.7160    6.7980   -3.5780 C   0  0  0  0  0  0  0  0  0  0  0  0
    9.4380    7.3490  -10.0120 C   0  0  0  0  0  0  0  0  0  0  0  0
   13.3350    7.7330   -0.3560 F   0  0  0  0  0  0  0  0  0  0  0  0
   12.1780    6.6050   -2.3160 C   0  0  0  0  0  0  0  0  0  0  0  0
   11.3920    9.9350   -5.2260 C   0  0  0  0  0  0  0  0  0  0  0  0
   10.1110    6.0480  -13.0450 O   0  0  0  0  0  0  0  0  0  0  0  0
    7.5140    5.1790  -13.7450 C   0  0  2  0  0  0  0  0  0  0  0  0
    6.2410    8.2580  -14.8480 O   0  0  0  0  0  0  0  0  0  0  0  0
   11.5650    8.0270   -6.5740 C   0  0  0  0  0  0  0  0  0  0  0  0
    5.5680    4.7110  -11.3480 C   0  0  0  0  0  0  0  0  0  0  0  0
   11.5110    8.6030   -5.4200 N   0  0  0  0  0  0  0  0  0  0  0  0
    5.1880    4.4080  -12.7920 C   0  0  0  0  0  0  0  0  0  0  0  0
  3 27  1  6
  3 17  1  0
  4 30  2  0
  5 20  1  1
  5  3  1  0
  5  6  1  0
  7 12  1  1
  8 19  1  0
  9 29  1  0
  9 13  1  0
 10 23  2  0
 11 22  1  0
 11 19  2  0
 12  1  1  0
 14 21  2  0
 15  9  2  0
 16  1  1  0
 16  2  1  1
 16 30  1  0
 17 23  1  0
 17  7  1  0
 18 28  1  0
 18 33  1  0
 19 14  1  0
 21 24  1  0
 22 25  2  0
 23  7  1  0
 25 21  1  0
 26  8  1  0
 28 13  1  1
 28  5  1  0
 30 32  1  0
 31  6  1  0
 32 26  1  0
 32 11  1  0
 33 31  2  0
M  END
>  <GenAI_Model>  (40) 
DiffSBDD

>  <Protein>  (40) 
generic_title2

>  <num_sample>  (40) 
50

$$$$
DiffSBDD_40_num_sample_50
     RDKit          3D

 39 42  0  0  0  0  0  0  0  0999 V2000
   11.4250    7.9530   -6.3170 C   0  0  1  0  0  0  0  0  0  0  0  0
    6.1460    5.2030  -11.9950 S   0  0  0  0  0  0  0  0  0  0  0  0
    8.6060    8.2050  -11.6080 C   0  0  0  0  0  0  0  0  0  0  0  0
    9.3590    6.6460   -7.9760 C   0  0  2  0  0  0  0  0  0  0  0  0
    9.2350    7.3620  -10.9540 C   0  0  0  0  0  0  0  0  0  0  0  0
   10.6110    6.7430   -2.0820 C   0  0  0  0  0  0  0  0  0  0  0  0
   10.7040    6.5390   -5.8620 C   0  0  2  0  0  0  0  0  0  0  0  0
   11.6570    7.5000   -2.4200 C   0  0  0  0  0  0  0  0  0  0  0  0
    9.1730    6.7320   -6.5890 C   0  0  0  0  0  0  0  0  0  0  0  0
   12.3090    7.7570   -7.4960 C   0  0  0  0  0  0  0  0  0  0  0  0
    8.5980    4.0300  -12.8400 C   0  0  0  0  0  0  0  0  0  0  0  0
   12.4560    8.0780   -1.5360 C   0  0  1  0  0  0  0  0  0  0  0  0
    8.7790    5.8820  -11.2100 C   0  0  1  0  0  0  0  0  0  0  0  0
   13.0660    8.3410   -4.1060 C   0  0  0  0  0  0  0  0  0  0  0  0
   13.3860    9.2090   -1.8450 C   0  0  2  0  0  0  0  0  0  0  0  0
   12.0640    7.4330   -3.6530 C   0  0  0  0  0  0  0  0  0  0  0  0
   10.4930    7.7220  -10.4030 C   0  0  1  0  0  0  0  0  0  0  0  0
    7.2460    4.1280  -13.2830 C   0  0  2  0  0  0  0  0  0  0  0  0
   11.7640    7.0810  -12.5530 S   0  0  0  0  0  0  0  0  0  0  0  0
    8.8700    5.2920   -8.6520 C   0  0  0  0  0  0  0  0  0  0  0  0
   13.8780   10.0670   -0.9060 F   0  0  0  0  0  0  0  0  0  0  0  0
   11.2210    6.2190   -4.4290 C   0  0  0  0  0  0  0  0  0  0  0  0
   13.6640    9.3820   -3.2220 C   0  0  0  0  0  0  0  0  0  0  0  0
    7.5060    5.5000  -10.9750 C   0  0  0  0  0  0  0  0  0  0  0  0
   12.4630    7.8150   -0.2760 F   0  0  0  0  0  0  0  0  0  0  0  0
    7.8040    5.1590   -8.6620 O   0  0  0  0  0  0  0  0  0  0  0  0
   10.3830    8.1820   -8.9610 O   0  0  0  0  0  0  0  0  0  0  0  0
   10.6240    9.1180   -6.2420 O   0  0  0  0  0  0  0  0  0  0  0  0
   11.7350    7.6950  -10.7510 C   0  0  0  0  0  0  0  0  0  0  0  0
    5.3670    7.0980  -16.5040 C   0  0  0  0  0  0  0  0  0  0  0  0
    7.4400    3.9130  -16.9290 N   0  0  0  0  0  0  0  0  0  0  0  0
   11.4990    8.6330   -8.5260 C   0  0  0  0  0  0  0  0  0  0  0  0
    7.5650    2.6110  -15.3740 N   0  0  0  0  0  0  0  0  0  0  0  0
   10.1500    5.5550   -8.7000 O   0  0  0  0  0  0  0  0  0  0  0  0
    7.1640    4.5100  -15.9640 C   0  0  1  0  0  0  0  0  0  0  0  0
    8.9950    4.9950  -12.4840 C   0  0  0  0  0  0  0  0  0  0  0  0
    7.2690    3.8920  -14.7860 C   0  0  0  0  0  0  0  0  0  0  0  0
    7.6180    2.3830  -16.4740 C   0  0  0  0  0  0  0  0  0  0  0  0
    6.7840    6.2550  -16.2190 C   0  0  0  0  0  0  0  0  0  0  0  0
  1 28  1  6
  1  7  1  0
  2 24  1  0
  3  5  2  0
  4  9  1  1
  5 17  1  0
  7  9  1  1
  7 22  1  0
  8  6  2  0
  8 12  1  0
 10  1  1  0
 11 36  1  0
 12 25  1  1
 13 24  1  0
 13  5  1  6
 14 16  2  0
 14 23  1  0
 15 12  1  0
 15 21  1  6
 16  8  1  0
 17 29  1  1
 17 27  1  0
 18 37  1  6
 18 11  1  0
 18  2  1  0
 19 29  1  0
 20  4  1  0
 22 16  1  0
 23 15  1  0
 26 20  2  0
 27 32  1  0
 30 39  1  0
 31 38  2  0
 31 35  1  0
 32 10  1  0
 33 37  2  0
 34 20  1  0
 34  4  1  0
 35 39  1  1
 35 37  1  0
 36 13  1  0
 38 33  1  0
M  END
>  <GenAI_Model>  (41) 
DiffSBDD

>  <Protein>  (41) 
generic_title2

>  <num_sample>  (41) 
50

$$$$
DiffSBDD_41_num_sample_50
     RDKit          3D

 48 53  0  0  0  0  0  0  0  0999 V2000
    8.6580    5.2600  -15.5910 C   0  0  0  0  0  0  0  0  0  0  0  0
    8.7910    8.6280  -11.7640 C   0  0  0  0  0  0  0  0  0  0  0  0
    7.8750    8.4170  -12.9720 C   0  0  0  0  0  0  0  0  0  0  0  0
    5.1430    4.6050  -13.9260 C   0  0  0  0  0  0  0  0  0  0  0  0
    7.6670    6.0850  -15.7690 C   0  0  0  0  0  0  0  0  0  0  0  0
   10.5390    7.2380  -12.2490 O   0  0  0  0  0  0  0  0  0  0  0  0
   12.4800    9.6740   -7.1570 C   0  0  0  0  0  0  0  0  0  0  0  0
    9.4400    6.1030   -6.2440 N   0  0  0  0  0  0  0  0  0  0  0  0
   13.1220    9.7000   -1.9080 O   0  0  0  0  0  0  0  0  0  0  0  0
    8.7350    5.7640   -9.4310 C   0  0  2  0  0  0  0  0  0  0  0  0
    5.5710    3.3270  -14.5640 C   0  0  0  0  0  0  0  0  0  0  0  0
    8.0320    5.1020  -10.4780 O   0  0  0  0  0  0  0  0  0  0  0  0
    8.0760    4.0350   -7.3460 C   0  0  0  0  0  0  0  0  0  0  0  0
   11.8020    9.2700   -3.5260 C   0  0  1  0  0  0  0  0  0  0  0  0
    9.7330    4.5220   -4.0620 C   0  0  0  0  0  0  0  0  0  0  0  0
   12.6440    7.7610   -2.9960 C   0  0  1  0  0  0  0  0  0  0  0  0
    8.4220    4.9090  -11.8840 C   0  0  0  0  0  0  0  0  0  0  0  0
    8.7430    5.8710  -13.1010 C   0  0  1  0  0  0  0  0  0  0  0  0
   11.7020    8.0540   -3.3220 C   0  0  0  0  0  0  0  0  0  0  0  0
    9.1880    5.3110  -14.2590 C   0  0  0  0  0  0  0  0  0  0  0  0
   12.6430   10.4140   -0.5030 C   0  0  0  0  0  0  0  0  0  0  0  0
   12.3440    8.4880   -9.2770 C   0  0  0  0  0  0  0  0  0  0  0  0
   11.4770    9.4150   -6.3880 O   0  0  0  0  0  0  0  0  0  0  0  0
   12.2640    7.2250   -1.7270 C   0  0  0  0  0  0  0  0  0  0  0  0
    9.8710    7.7600  -11.4040 C   0  0  0  0  0  0  0  0  0  0  0  0
   10.0230    6.2210   -3.9890 C   0  0  0  0  0  0  0  0  0  0  0  0
   11.0230    7.6460   -5.4090 N   0  0  0  0  0  0  0  0  0  0  0  0
   10.1500    7.7260  -10.1040 N   0  0  0  0  0  0  0  0  0  0  0  0
   12.5810    8.5370   -7.6170 C   0  0  0  0  0  0  0  0  0  0  0  0
    7.0170    6.9370  -14.7790 C   0  0  2  0  0  0  0  0  0  0  0  0
   11.7360   10.4930   -3.5180 S   0  0  0  0  0  0  0  0  0  0  0  0
    7.4750    6.8460  -13.3140 C   0  0  2  0  0  0  0  0  0  0  0  0
    5.9520    7.6970  -15.0510 O   0  0  0  0  0  0  0  0  0  0  0  0
    5.6780    2.1890  -13.6250 C   0  0  0  0  0  0  0  0  0  0  0  0
   13.7510    5.9180   -1.3780 F   0  0  0  0  0  0  0  0  0  0  0  0
    9.9170    5.2560   -8.6910 C   0  0  0  0  0  0  0  0  0  0  0  0
   10.2780    6.3700   -5.0860 C   0  0  2  0  0  0  0  0  0  0  0  0
   11.4030    8.7500   -5.5990 C   0  0  0  0  0  0  0  0  0  0  0  0
    5.9670    2.4470  -12.2160 C   0  0  0  0  0  0  0  0  0  0  0  0
    6.0760    3.9000  -11.7240 C   0  0  0  0  0  0  0  0  0  0  0  0
   13.2560    7.2460   -1.0740 C   0  0  0  0  0  0  0  0  0  0  0  0
    8.9010    5.2720   -7.5810 C   0  0  2  0  0  0  0  0  0  0  0  0
   13.8130    7.7720   -0.0500 F   0  0  0  0  0  0  0  0  0  0  0  0
    6.0270    4.9170  -12.7720 N   0  0  0  0  0  0  0  0  0  0  0  0
    6.3140    6.3070  -12.4150 C   0  0  0  0  0  0  0  0  0  0  0  0
   12.7140    8.6570   -2.3470 C   0  0  1  0  0  0  0  0  0  0  0  0
   10.9050    8.1380   -9.1490 C   0  0  0  0  0  0  0  0  0  0  0  0
   12.1020    9.1840   -4.0510 C   0  0  1  0  0  0  0  0  0  0  0  0
  1 20  1  0
  2 25  1  0
  3  2  1  0
  4 44  1  0
  5  1  2  0
  5 30  1  0
  6 25  2  0
  7 23  1  0
  8 37  1  0
  9 21  1  0
 10 36  1  6
 10 42  1  0
 11  4  1  0
 11 34  1  0
 12 10  1  0
 14 31  1  1
 14 19  1  0
 14 46  1  0
 15 26  1  0
 16 46  1  0
 16 24  1  6
 17 12  1  0
 18 20  1  6
 18 17  1  0
 19 16  1  0
 22 47  1  0
 22 29  1  0
 23 38  1  0
 24 41  1  0
 25 28  1  0
 27 37  1  0
 28 47  1  0
 29  7  1  0
 30 33  1  1
 30 32  1  0
 32 18  1  0
 32  3  1  0
 32 45  1  1
 34 39  1  0
 35 41  1  0
 36 42  1  0
 37 26  1  1
 38 27  2  0
 39 40  2  0
 41 43  1  0
 42 13  1  1
 42  8  1  0
 44 45  1  0
 44 40  1  0
 46  9  1  6
 48 38  1  6
 48 14  1  0
 48 16  1  0
M  END
>  <GenAI_Model>  (42) 
DiffSBDD

>  <Protein>  (42) 
generic_title2

>  <num_sample>  (42) 
50

$$$$
DiffSBDD_42_num_sample_50
     RDKit          3D

 32 35  0  0  0  0  0  0  0  0999 V2000
    6.7210    6.2230  -13.4600 C   0  0  2  0  0  0  0  0  0  0  0  0
    9.5330    7.7370  -12.0760 S   0  0  0  0  0  0  0  0  0  0  0  0
   12.0290    8.7840   -2.6520 C   0  0  0  0  0  0  0  0  0  0  0  0
   10.5000    9.6820   -9.0500 O   0  0  0  0  0  0  0  0  0  0  0  0
    6.6100    4.6900  -13.2320 C   0  0  0  0  0  0  0  0  0  0  0  0
    8.3520    8.5220  -12.1100 O   0  0  0  0  0  0  0  0  0  0  0  0
   10.6860    7.0450  -12.4270 O   0  0  0  0  0  0  0  0  0  0  0  0
   12.1600    6.4620   -3.0920 C   0  0  0  0  0  0  0  0  0  0  0  0
    9.3990    6.2730   -9.1880 C   0  0  2  0  0  0  0  0  0  0  0  0
   11.2950    7.8760   -4.8820 N   0  0  0  0  0  0  0  0  0  0  0  0
   10.0390    8.0380  -10.7760 O   0  0  0  0  0  0  0  0  0  0  0  0
    6.3710    3.9430  -11.0740 C   0  0  0  0  0  0  0  0  0  0  0  0
    8.1550    5.6370  -11.7080 C   0  0  1  0  0  0  0  0  0  0  0  0
   13.6960    7.3000    0.1740 F   0  0  0  0  0  0  0  0  0  0  0  0
   12.0330    8.9680   -5.5940 C   0  0  0  0  0  0  0  0  0  0  0  0
    8.4280    3.3620  -12.3810 C   0  0  0  0  0  0  0  0  0  0  0  0
    9.5430    5.9850   -7.7830 C   0  0  0  0  0  0  0  0  0  0  0  0
    8.1850    6.1930  -13.3000 C   0  0  0  0  0  0  0  0  0  0  0  0
   11.1890    7.9440   -7.6260 N   0  0  0  0  0  0  0  0  0  0  0  0
   11.9970    8.9300   -6.9350 C   0  0  0  0  0  0  0  0  0  0  0  0
   13.0010    7.4180   -1.0040 C   0  0  0  0  0  0  0  0  0  0  0  0
   10.9320    6.7060   -5.6450 C   0  0  0  0  0  0  0  0  0  0  0  0
   10.4100    7.3200   -9.7100 C   0  0  1  0  0  0  0  0  0  0  0  0
   11.9100    7.6650   -3.5540 C   0  0  0  0  0  0  0  0  0  0  0  0
   12.6600    6.3440   -1.8050 C   0  0  0  0  0  0  0  0  0  0  0  0
   10.1090    7.1020   -6.8800 C   0  0  2  0  0  0  0  0  0  0  0  0
    8.4440    5.8610  -10.1230 C   0  0  0  0  0  0  0  0  0  0  0  0
    5.8290    6.6290  -12.5120 F   0  0  0  0  0  0  0  0  0  0  0  0
    5.8840    6.6380  -14.6020 C   0  0  0  0  0  0  0  0  0  0  0  0
   10.5990    8.4570   -8.7470 C   0  0  0  0  0  0  0  0  0  0  0  0
    7.3890    4.4170  -12.0630 C   0  0  0  0  0  0  0  0  0  0  0  0
   12.6930    8.6950   -1.5040 C   0  0  0  0  0  0  0  0  0  0  0  0
  1 29  1  6
  1 18  1  0
  1  5  1  0
  1 28  1  0
  2  7  2  0
  2 11  1  0
  3 32  2  0
  4 30  2  0
  5 31  1  0
  6  2  1  0
  8 25  1  0
  9 27  1  1
  9 17  1  0
 10 24  1  0
 13 27  1  1
 15 10  1  0
 16 31  1  0
 18 13  1  0
 19 20  1  0
 19 26  1  0
 20 15  2  0
 21 14  1  0
 22 10  1  0
 23 11  1  6
 23  9  1  0
 23 30  1  0
 24  8  2  0
 24  3  1  0
 25 21  2  0
 26 17  1  6
 26 22  1  0
 30 19  1  0
 31 13  1  0
 31 12  1  0
 32 21  1  0
M  END
>  <GenAI_Model>  (43) 
DiffSBDD

>  <Protein>  (43) 
generic_title2

>  <num_sample>  (43) 
50

$$$$
DiffSBDD_43_num_sample_50
     RDKit          3D

 30 30  0  0  0  0  0  0  0  0999 V2000
   10.9940    7.0590  -11.4310 C   0  0  0  0  0  0  0  0  0  0  0  0
    6.6370    3.6450  -14.2080 C   0  0  0  0  0  0  0  0  0  0  0  0
   12.3610    6.0310   -2.6980 N   0  0  0  0  0  0  0  0  0  0  0  0
   10.4840    8.6990   -5.7550 O   0  0  0  0  0  0  0  0  0  0  0  0
    8.9520    6.5960  -10.6740 C   0  0  0  0  0  0  0  0  0  0  0  0
    7.3950    5.7230  -12.4440 C   0  0  2  0  0  0  0  0  0  0  0  0
   10.7970    7.6400   -7.8580 C   0  0  1  0  0  0  0  0  0  0  0  0
    9.0150    4.8570  -14.3260 O   0  0  0  0  0  0  0  0  0  0  0  0
    5.4340    5.0480  -10.9810 O   0  0  0  0  0  0  0  0  0  0  0  0
   10.2480    8.0460   -9.2350 N   0  0  0  0  0  0  0  0  0  0  0  0
    5.4980    4.8020  -12.1290 C   0  0  0  0  0  0  0  0  0  0  0  0
   11.9730    8.2570   -7.7280 F   0  0  0  0  0  0  0  0  0  0  0  0
   10.6100    6.2810  -12.3970 O   0  0  0  0  0  0  0  0  0  0  0  0
   12.5110    8.1190   -1.3940 C   0  0  0  0  0  0  0  0  0  0  0  0
   11.8990    6.5840   -3.6850 C   0  0  0  0  0  0  0  0  0  0  0  0
    9.7760    7.9850   -6.8580 C   0  0  0  0  0  0  0  0  0  0  0  0
   10.1150    7.1610  -10.3540 C   0  0  2  0  0  0  0  0  0  0  0  0
    8.3760    5.8700  -11.3500 C   0  0  0  0  0  0  0  0  0  0  0  0
   11.6030    8.0580   -5.5000 O   0  0  0  0  0  0  0  0  0  0  0  0
    7.9960    4.4970  -13.3900 C   0  0  2  0  0  0  0  0  0  0  0  0
   13.0220    6.0960   -0.6860 F   0  0  0  0  0  0  0  0  0  0  0  0
   11.8360    7.9290   -4.0290 C   0  0  0  0  0  0  0  0  0  0  0  0
    5.3910    4.3370  -13.2320 C   0  0  0  0  0  0  0  0  0  0  0  0
   12.1040    7.4970  -11.6060 O   0  0  0  0  0  0  0  0  0  0  0  0
   12.0690    9.1870   -3.5100 C   0  0  0  0  0  0  0  0  0  0  0  0
   12.3870    9.2690   -2.1540 C   0  0  0  0  0  0  0  0  0  0  0  0
    6.7890    6.1500  -13.2110 C   0  0  0  0  0  0  0  0  0  0  0  0
    6.3660    7.5870  -14.1840 C   0  0  0  0  0  0  0  0  0  0  0  0
   11.3730    5.7530   -4.5090 F   0  0  0  0  0  0  0  0  0  0  0  0
   12.6760    6.8460   -1.7230 C   0  0  1  0  0  0  0  0  0  0  0  0
  1 17  1  0
  2 20  1  0
  2 23  1  0
  3 30  1  0
  4 19  1  0
  6 27  1  6
  6 18  1  0
  7 12  1  1
  7 16  1  0
 10  7  1  0
 11  9  2  0
 13  1  2  0
 15 29  1  0
 15  3  1  0
 16  4  1  0
 17  5  1  6
 17 10  1  0
 18  5  1  0
 19 22  1  0
 20  8  1  6
 20  6  1  0
 22 15  1  0
 22 25  2  0
 23 11  2  0
 24  1  1  0
 25 26  1  0
 26 14  1  0
 28 27  1  0
 30 14  1  0
 30 21  1  1
M  END
>  <GenAI_Model>  (44) 
DiffSBDD

>  <Protein>  (44) 
generic_title2

>  <num_sample>  (44) 
50

$$$$
DiffSBDD_44_num_sample_50
     RDKit          3D

 29 32  0  0  0  0  0  0  0  0999 V2000
    5.9800    5.9120  -12.4490 C   0  0  0  0  0  0  0  0  0  0  0  0
   10.9120    7.1170   -6.6600 C   0  0  1  0  0  0  0  0  0  0  0  0
   11.4870    6.5000   -4.4380 C   0  0  0  0  0  0  0  0  0  0  0  0
    8.3390    5.9040  -12.9710 C   0  0  1  0  0  0  0  0  0  0  0  0
    6.3640    4.8470  -11.5050 C   0  0  0  0  0  0  0  0  0  0  0  0
   12.3390    9.4250   -3.7010 C   0  0  0  0  0  0  0  0  0  0  0  0
    7.2070    6.6820  -12.7950 C   0  0  0  0  0  0  0  0  0  0  0  0
    7.8560    8.7560  -11.8030 O   0  0  0  0  0  0  0  0  0  0  0  0
    9.9660    7.0660  -11.5180 N   0  0  0  0  0  0  0  0  0  0  0  0
    7.4610    3.8900  -11.9170 C   0  0  2  0  0  0  0  0  0  0  0  0
    9.4730    6.4560   -6.6580 C   0  0  0  0  0  0  0  0  0  0  0  0
   12.4030    6.4150   -1.6690 O   0  0  0  0  0  0  0  0  0  0  0  0
    9.6620    6.7000  -12.7660 C   0  0  0  0  0  0  0  0  0  0  0  0
   10.4980    7.4990   -9.1550 C   0  0  2  0  0  0  0  0  0  0  0  0
   11.9860    7.6200  -10.6940 O   0  0  0  0  0  0  0  0  0  0  0  0
   11.7830    8.8820   -4.8970 C   0  0  0  0  0  0  0  0  0  0  0  0
   11.9290    6.6030   -3.2300 C   0  0  0  0  0  0  0  0  0  0  0  0
    7.2490    8.1140  -12.9430 C   0  0  0  0  0  0  0  0  0  0  0  0
   12.3720    7.3920   -2.4550 C   0  0  0  0  0  0  0  0  0  0  0  0
    8.6330    4.6670  -12.1960 O   0  0  0  0  0  0  0  0  0  0  0  0
   12.7370    8.9500   -2.3510 C   0  0  0  0  0  0  0  0  0  0  0  0
    7.0340    3.0770  -13.1240 C   0  0  0  0  0  0  0  0  0  0  0  0
    7.5570    3.1140  -10.8390 F   0  0  0  0  0  0  0  0  0  0  0  0
   10.7980    7.3850  -10.5340 C   0  0  0  0  0  0  0  0  0  0  0  0
   11.0240    8.0690   -7.7950 C   0  0  0  0  0  0  0  0  0  0  0  0
    9.1990    6.6600   -8.9240 C   0  0  0  0  0  0  0  0  0  0  0  0
   11.4540    7.6330   -5.2930 C   0  0  0  0  0  0  0  0  0  0  0  0
    9.1370    5.6480   -8.0040 C   0  0  0  0  0  0  0  0  0  0  0  0
   11.9910    5.9130   -7.0240 C   0  0  0  0  0  0  0  0  0  0  0  0
  1  5  1  0
  2 29  1  6
  2 11  1  0
  2 27  1  0
  3 17  1  0
  4  7  1  0
  4 13  1  1
  4 20  1  0
  6 21  1  0
  7 18  1  0
  7  1  1  0
  9 24  1  0
 10 22  1  6
 10  5  1  0
 10 23  1  0
 13  9  1  0
 14 24  1  1
 14 26  1  0
 14 25  1  0
 15 24  2  0
 16  6  2  0
 17 19  2  0
 17 12  1  0
 18  8  1  0
 19 21  1  0
 19 12  1  0
 20 10  1  0
 25  2  1  0
 26 28  1  0
 27 16  1  0
 27  3  2  0
 28 11  1  0
M  END
>  <GenAI_Model>  (45) 
DiffSBDD

>  <Protein>  (45) 
generic_title2

>  <num_sample>  (45) 
50

$$$$
DiffSBDD_45_num_sample_50
     RDKit          3D

 27 30  0  0  0  0  0  0  0  0999 V2000
   10.5530    6.3180   -6.1370 C   0  0  0  0  0  0  0  0  0  0  0  0
    9.8360    6.7450   -8.7220 C   0  0  2  0  0  0  0  0  0  0  0  0
   10.8720    6.9390   -9.6310 O   0  0  0  0  0  0  0  0  0  0  0  0
   13.5890    7.7540   -1.3320 C   0  0  0  0  0  0  0  0  0  0  0  0
   13.3700   10.8710   -4.7310 O   0  0  0  0  0  0  0  0  0  0  0  0
   11.7790    8.7860   -0.2120 O   0  0  0  0  0  0  0  0  0  0  0  0
   12.5110   10.1550   -4.2700 C   0  0  2  0  0  0  0  0  0  0  0  0
   13.1860    9.1930   -3.3030 O   0  0  0  0  0  0  0  0  0  0  0  0
   10.2060    6.9960   -0.8500 C   0  0  2  0  0  0  0  0  0  0  0  0
   12.4450    9.8580   -1.0060 C   0  0  0  0  0  0  0  0  0  0  0  0
   11.2100   10.1800   -5.4170 C   0  0  2  0  0  0  0  0  0  0  0  0
   11.3060    8.4940   -6.7160 C   0  0  2  0  0  0  0  0  0  0  0  0
   12.8340    5.5150   -0.6900 C   0  0  0  0  0  0  0  0  0  0  0  0
   10.0190    8.6530   -7.4000 C   0  0  0  0  0  0  0  0  0  0  0  0
   11.7230    7.2400   -6.4110 C   0  0  0  0  0  0  0  0  0  0  0  0
   12.5360    6.7910   -1.3650 C   0  0  1  0  0  0  0  0  0  0  0  0
   10.9430    6.6350   -3.1990 C   0  0  0  0  0  0  0  0  0  0  0  0
   11.6960    8.0620   -9.8480 C   0  0  0  0  0  0  0  0  0  0  0  0
   11.2380   10.0580   -3.9120 O   0  0  0  0  0  0  0  0  0  0  0  0
   13.3810    9.1240   -1.8980 C   0  0  1  0  0  0  0  0  0  0  0  0
    9.5950    8.0730   -8.5470 C   0  0  0  0  0  0  0  0  0  0  0  0
    9.8830    6.8510   -2.2400 C   0  0  0  0  0  0  0  0  0  0  0  0
   12.0140    9.6830   -6.1850 C   0  0  0  0  0  0  0  0  0  0  0  0
    9.2150    6.6850    0.1720 C   0  0  0  0  0  0  0  0  0  0  0  0
    9.6010    6.1770   -7.2970 C   0  0  0  0  0  0  0  0  0  0  0  0
   11.4340    7.5260   -0.6220 C   0  0  1  0  0  0  0  0  0  0  0  0
   12.3270    6.3390   -2.7560 C   0  0  0  0  0  0  0  0  0  0  0  0
  2  3  1  1
  2 21  1  0
  2 25  1  0
  7  5  1  1
  7 19  1  0
  7  8  1  0
  9 26  1  0
  9 24  1  1
 10  6  1  0
 11 23  1  6
 11  7  1  0
 11 19  1  0
 12 15  1  0
 12 23  1  1
 14 12  1  0
 15  1  1  0
 16  4  1  0
 16 13  1  1
 16 26  1  0
 17 27  1  0
 17 22  2  0
 18  3  1  0
 20  8  1  6
 20  4  1  0
 20 10  1  0
 21 14  1  0
 22  9  1  0
 25  1  1  0
 26  6  1  6
 27 16  1  0
M  END
>  <GenAI_Model>  (46) 
DiffSBDD

>  <Protein>  (46) 
generic_title2

>  <num_sample>  (46) 
50

$$$$
DiffSBDD_46_num_sample_50
     RDKit          3D

 35 37  0  0  0  0  0  0  0  0999 V2000
    8.3060    4.8030   -7.9840 O   0  0  0  0  0  0  0  0  0  0  0  0
    7.1310    7.0890  -12.7800 C   0  0  0  0  0  0  0  0  0  0  0  0
    8.8620    5.6200   -7.8710 C   0  0  0  0  0  0  0  0  0  0  0  0
    5.9790    6.5560  -13.6230 C   0  0  0  0  0  0  0  0  0  0  0  0
    9.3940    5.4000  -10.6700 O   0  0  0  0  0  0  0  0  0  0  0  0
    9.2910    7.8520   -9.8660 O   0  0  0  0  0  0  0  0  0  0  0  0
   11.7910    8.4870   -0.0720 O   0  0  0  0  0  0  0  0  0  0  0  0
   11.7470    8.8440   -5.5390 O   0  0  0  0  0  0  0  0  0  0  0  0
   11.9420    8.5190   -7.7710 C   0  0  0  0  0  0  0  0  0  0  0  0
    8.1520    4.8910  -12.8920 N   0  0  0  0  0  0  0  0  0  0  0  0
   11.7710    8.1250   -1.2600 C   0  0  0  0  0  0  0  0  0  0  0  0
    7.3290    8.3030  -12.7560 O   0  0  0  0  0  0  0  0  0  0  0  0
   10.1480    6.5320   -0.8870 O   0  0  0  0  0  0  0  0  0  0  0  0
    8.0420    5.5590   -0.4380 C   0  0  0  0  0  0  0  0  0  0  0  0
    5.2270    5.3520  -13.0070 C   0  0  0  0  0  0  0  0  0  0  0  0
   10.9900    8.0450  -11.4770 F   0  0  0  0  0  0  0  0  0  0  0  0
   11.1720    6.9540   -1.5740 N   0  0  0  0  0  0  0  0  0  0  0  0
    9.2490    6.4110  -11.5910 C   0  0  2  0  0  0  0  0  0  0  0  0
   12.3150    8.9190   -2.2780 C   0  0  0  0  0  0  0  0  0  0  0  0
   11.3600    8.0630   -6.6170 C   0  0  0  0  0  0  0  0  0  0  0  0
    5.9710    6.9160  -15.0530 C   0  0  0  0  0  0  0  0  0  0  0  0
   12.8000    9.1480   -4.6690 C   0  0  0  0  0  0  0  0  0  0  0  0
   10.2410    7.4890   -8.9470 C   0  0  1  0  0  0  0  0  0  0  0  0
    9.7110    7.8100  -11.2530 C   0  0  1  0  0  0  0  0  0  0  0  0
   12.1300    6.9610   -3.7830 C   0  0  0  0  0  0  0  0  0  0  0  0
    9.2440    4.1820  -10.9470 C   0  0  0  0  0  0  0  0  0  0  0  0
   10.4360    7.0400   -6.5690 C   0  0  0  0  0  0  0  0  0  0  0  0
    8.8410    6.2760   -1.4590 C   0  0  0  0  0  0  0  0  0  0  0  0
   11.5670    6.1640   -2.6660 C   0  0  0  0  0  0  0  0  0  0  0  0
    8.2330    6.1060  -12.4780 C   0  0  2  0  0  0  0  0  0  0  0  0
   12.4570    8.3090   -3.5040 C   0  0  0  0  0  0  0  0  0  0  0  0
   11.4140    8.1700   -9.0230 C   0  0  0  0  0  0  0  0  0  0  0  0
    8.6690    2.5980  -12.7310 O   0  0  0  0  0  0  0  0  0  0  0  0
    9.8540    6.6500   -7.8200 C   0  0  0  0  0  0  0  0  0  0  0  0
    8.6820    3.8190  -12.2390 C   0  0  0  0  0  0  0  0  0  0  0  0
  1  3  2  0
  2 12  2  0
  3 34  2  0
  4 15  1  0
  4  2  1  0
  8 22  1  0
  9 20  2  0
 10 30  1  0
 10 35  1  0
 11  7  2  0
 17 11  1  0
 17 13  1  0
 18 24  1  0
 18  5  1  1
 19 11  1  0
 20 27  1  0
 20  8  1  0
 21  4  1  0
 22 31  1  0
 23  6  1  1
 23 34  1  0
 24 16  1  1
 24  6  1  0
 25 31  1  0
 25 29  1  0
 26  5  1  0
 28 13  1  0
 28 14  1  0
 29 17  1  0
 30  2  1  1
 30 18  1  0
 31 19  2  0
 32 23  1  0
 32  9  1  0
 33 35  2  0
 34 27  1  0
 35 26  1  0
M  END
>  <GenAI_Model>  (47) 
DiffSBDD

>  <Protein>  (47) 
generic_title2

>  <num_sample>  (47) 
50

$$$$
DiffSBDD_47_num_sample_50
     RDKit          3D

 30 32  0  0  0  0  0  0  0  0999 V2000
    9.3990    7.2890  -12.8160 C   0  0  0  0  0  0  0  0  0  0  0  0
    8.8100    5.3340   -3.4790 C   0  0  0  0  0  0  0  0  0  0  0  0
    8.4910    6.1680   -1.2000 O   0  0  0  0  0  0  0  0  0  0  0  0
    9.9670    7.3790   -9.0520 N   0  0  0  0  0  0  0  0  0  0  0  0
   10.6470    9.2510   -7.9280 C   0  0  0  0  0  0  0  0  0  0  0  0
   11.0820    7.8500   -9.6480 O   0  0  0  0  0  0  0  0  0  0  0  0
   11.5000    6.6840  -13.4850 N   0  0  0  0  0  0  0  0  0  0  0  0
   10.5110    5.7980   -7.1510 C   0  0  0  0  0  0  0  0  0  0  0  0
    9.1750    6.1590   -2.2020 C   0  0  0  0  0  0  0  0  0  0  0  0
   11.3070    9.2840   -5.7140 C   0  0  0  0  0  0  0  0  0  0  0  0
    9.3910    4.9000   -8.9510 O   0  0  0  0  0  0  0  0  0  0  0  0
   11.3450    6.7810   -3.4120 C   0  0  0  0  0  0  0  0  0  0  0  0
   10.6540    6.6000   -4.7390 C   0  0  0  0  0  0  0  0  0  0  0  0
    7.3920    8.6660  -12.5400 C   0  0  0  0  0  0  0  0  0  0  0  0
   11.0560    7.0800   -1.1100 O   0  0  0  0  0  0  0  0  0  0  0  0
   10.2370    6.8810  -13.9390 N   0  0  0  0  0  0  0  0  0  0  0  0
   13.4450    6.8080   -4.1510 F   0  0  0  0  0  0  0  0  0  0  0  0
    9.5880    6.2370   -8.2540 C   0  0  2  0  0  0  0  0  0  0  0  0
   12.7500    7.1730   -3.0670 C   0  0  0  0  0  0  0  0  0  0  0  0
    8.0590    7.3510  -12.9160 C   0  0  0  0  0  0  0  0  0  0  0  0
    9.3230    5.9730   -4.7550 C   0  0  0  0  0  0  0  0  0  0  0  0
   13.2790    6.5150   -1.8380 C   0  0  0  0  0  0  0  0  0  0  0  0
   11.7170    6.9580  -12.3450 N   0  0  0  0  0  0  0  0  0  0  0  0
   10.6450    6.6410   -2.2740 C   0  0  0  0  0  0  0  0  0  0  0  0
    8.1490    4.7580   -9.5630 C   0  0  0  0  0  0  0  0  0  0  0  0
   10.2930    7.2630  -11.7840 C   0  0  1  0  0  0  0  0  0  0  0  0
   10.6820    8.3170   -6.6170 C   0  0  0  0  0  0  0  0  0  0  0  0
   12.7160    8.7440   -2.7920 C   0  0  0  0  0  0  0  0  0  0  0  0
   10.3480    7.4720  -10.4380 C   0  0  1  0  0  0  0  0  0  0  0  0
   11.1150    6.8210   -6.1830 C   0  0  2  0  0  0  0  0  0  0  0  0
  2  9  1  0
  4 18  1  0
  5 27  1  0
  6  4  1  0
  7 23  2  0
  9  3  2  0
 11 18  1  0
 12 19  1  0
 12 24  2  0
 13 12  1  0
 16  7  1  0
 16  1  2  0
 17 19  1  0
 18  8  1  1
 19 28  1  0
 19 22  1  0
 20  1  1  0
 20 14  1  0
 21 13  2  0
 21  2  1  0
 26 23  1  6
 24  9  1  0
 24 15  1  0
 25 11  1  0
 26  1  1  0
 26 29  1  0
 27 30  1  0
 27 10  1  0
 29  6  1  1
 29  4  1  0
 30  8  1  6
 30 13  1  0
M  END
>  <GenAI_Model>  (48) 
DiffSBDD

>  <Protein>  (48) 
generic_title2

>  <num_sample>  (48) 
50

$$$$
