DiffSBDD_0
     RDKit          3D

 33 37  0  0  0  0  0  0  0  0999 V2000
   12.9870    8.2230   -0.4300 C   0  0  0  0  0  0  0  0  0  0  0  0
   10.0420    7.1570   -7.6450 N   0  0  0  0  0  0  0  0  0  0  0  0
    8.1610    4.5690  -10.4510 C   0  0  1  0  0  0  0  0  0  0  0  0
   11.8670    8.7520   -6.2060 C   0  0  0  0  0  0  0  0  0  0  0  0
   11.1190    5.4330   -1.4630 F   0  0  0  0  0  0  0  0  0  0  0  0
    9.2450    6.1950   -6.9350 C   0  0  0  0  0  0  0  0  0  0  0  0
   12.8810    9.1700   -1.3280 C   0  0  0  0  0  0  0  0  0  0  0  0
   11.0620    8.0060   -4.7910 C   0  0  0  0  0  0  0  0  0  0  0  0
   11.9710    7.3840   -2.6480 C   0  0  1  0  0  0  0  0  0  0  0  0
    7.1190    5.6610  -12.9570 C   0  0  0  0  0  0  0  0  0  0  0  0
   10.2080    7.1610   -8.9590 C   0  0  0  0  0  0  0  0  0  0  0  0
   12.0020    8.3480  -11.1850 C   0  0  0  0  0  0  0  0  0  0  0  0
    7.4310    5.0890  -11.6510 C   0  0  1  0  0  0  0  0  0  0  0  0
   11.9740    8.9960   -5.0170 O   0  0  0  0  0  0  0  0  0  0  0  0
   11.9660    6.7420   -1.4080 C   0  0  0  0  0  0  0  0  0  0  0  0
    8.9920    4.8090  -11.7420 C   0  0  1  0  0  0  0  0  0  0  0  0
    8.5610    5.7790   -9.5740 N   0  0  0  0  0  0  0  0  0  0  0  0
   11.6410    6.6290   -4.0400 C   0  0  0  0  0  0  0  0  0  0  0  0
   12.0840    7.6680  -10.1850 C   0  0  0  0  0  0  0  0  0  0  0  0
    9.7260    6.3480  -10.2610 C   0  0  2  0  0  0  0  0  0  0  0  0
   11.7210    7.3360  -12.5020 O   0  0  0  0  0  0  0  0  0  0  0  0
   12.2070    8.6570   -2.5350 C   0  0  0  0  0  0  0  0  0  0  0  0
    6.0080    6.3930  -13.3180 N   0  0  0  0  0  0  0  0  0  0  0  0
    8.4900    5.2890   -8.1660 C   0  0  0  0  0  0  0  0  0  0  0  0
    7.9070    5.5250  -13.9210 N   0  0  0  0  0  0  0  0  0  0  0  0
    7.2430    6.2260  -15.0330 O   0  0  0  0  0  0  0  0  0  0  0  0
    6.0690    6.7310  -14.6450 C   0  0  0  0  0  0  0  0  0  0  0  0
   11.1060    8.2020   -9.3160 O   0  0  0  0  0  0  0  0  0  0  0  0
    5.1120    7.4080  -15.5620 N   0  0  0  0  0  0  0  0  0  0  0  0
   10.7550    7.9430   -6.5690 C   0  0  0  0  0  0  0  0  0  0  0  0
   12.5090    7.0500   -0.3700 C   0  0  0  0  0  0  0  0  0  0  0  0
    5.0550    6.7260  -16.8880 C   0  0  0  0  0  0  0  0  0  0  0  0
   10.0270    5.9330  -11.7680 C   0  0  0  0  0  0  0  0  0  0  0  0
  1 31  1  0
  2  6  1  0
  2 30  1  0
  3 17  1  1
  4 14  1  0
  5 15  1  0
  7  1  1  0
  8 18  1  0
  9 22  1  0
  9 15  1  0
 13 10  1  1
 11  2  1  0
 12 19  1  0
 13  3  1  0
 14  8  1  0
 15 31  1  0
 16 13  1  0
 16  3  1  0
 17 24  1  0
  9 18  1  1
 19 28  1  0
 20 17  1  0
 20 11  1  0
 21 12  1  0
 22  7  1  0
 23 10  1  0
 24  6  1  0
 25 10  2  0
 26 27  1  0
 26 25  1  0
 27 23  2  0
 28 11  1  0
 29 27  1  0
 30  4  2  3
 32 29  1  0
 16 33  1  1
 20 33  1  1
M  END
>  <GenAI_Model>  (1) 
DiffSBDD

>  <Protein>  (1) 
generic_title2

>  <num_sample>  (1) 
50

$$$$
DiffSBDD_1
     RDKit          3D

 38 40  0  0  0  0  0  0  0  0999 V2000
    8.2990    3.6030  -10.2680 O   0  0  0  0  0  0  0  0  0  0  0  0
    8.6870    3.8370  -13.2480 O   0  0  0  0  0  0  0  0  0  0  0  0
   10.5230    6.7750   -7.0800 C   0  0  2  0  0  0  0  0  0  0  0  0
   12.3430    8.4220   -7.6080 C   0  0  0  0  0  0  0  0  0  0  0  0
   12.1260    9.5230   -2.9800 C   0  0  0  0  0  0  0  0  0  0  0  0
    7.1710    7.9420  -13.3550 C   0  0  0  0  0  0  0  0  0  0  0  0
   12.6440    7.3510   -1.4180 C   0  0  0  0  0  0  0  0  0  0  0  0
    7.9910    4.9760  -13.2670 C   0  0  1  0  0  0  0  0  0  0  0  0
   10.0580    6.6460   -8.6010 C   0  0  1  0  0  0  0  0  0  0  0  0
   11.8110    7.2250   -4.0530 C   0  0  2  0  0  0  0  0  0  0  0  0
   12.7810    9.4700   -6.7840 C   0  0  0  0  0  0  0  0  0  0  0  0
    9.1390    7.7790  -10.7460 O   0  0  0  0  0  0  0  0  0  0  0  0
   12.5140   10.1310   -4.2930 C   0  0  0  0  0  0  0  0  0  0  0  0
    9.0310    7.0440   -6.3950 C   0  0  0  0  0  0  0  0  0  0  0  0
    7.0910    4.7550  -12.1340 C   0  0  0  0  0  0  0  0  0  0  0  0
   12.6500    8.6160   -0.8190 C   0  0  0  0  0  0  0  0  0  0  0  0
   11.8530    7.3360   -6.7150 C   0  0  1  0  0  0  0  0  0  0  0  0
   12.5380    9.5560   -1.7840 C   0  0  0  0  0  0  0  0  0  0  0  0
    8.9440    6.1450  -12.9700 C   0  0  0  0  0  0  0  0  0  0  0  0
    7.9180    5.1440   -8.1010 C   0  0  2  0  0  0  0  0  0  0  0  0
    6.1900    8.3760  -12.6830 C   0  0  0  0  0  0  0  0  0  0  0  0
   12.2770    5.4320   -2.7990 F   0  0  0  0  0  0  0  0  0  0  0  0
    6.7080    7.8330  -12.5030 C   0  0  0  0  0  0  0  0  0  0  0  0
    8.1010    5.8160   -6.6610 C   0  0  0  0  0  0  0  0  0  0  0  0
    6.0040    2.8000  -10.7540 C   0  0  0  0  0  0  0  0  0  0  0  0
   11.0590    6.1440   -4.2140 F   0  0  0  0  0  0  0  0  0  0  0  0
   10.3250    9.5730  -11.0920 O   0  0  0  0  0  0  0  0  0  0  0  0
   11.3470    6.8560  -11.3110 O   0  0  0  0  0  0  0  0  0  0  0  0
   10.2460    8.1260  -10.8430 P   0  0  0  0  0  0  0  0  0  0  0  0
    8.2930    7.4230  -12.7400 C   0  0  0  0  0  0  0  0  0  0  0  0
    7.1660    3.6880  -10.9840 C   0  0  0  0  0  0  0  0  0  0  0  0
   12.3370    7.8420   -5.2750 C   0  0  1  0  0  0  0  0  0  0  0  0
   10.7240    9.5540   -5.6140 O   0  0  0  0  0  0  0  0  0  0  0  0
    7.6580    3.8070   -8.6470 C   0  0  0  0  0  0  0  0  0  0  0  0
   11.0460    7.3170   -9.4420 C   0  0  0  0  0  0  0  0  0  0  0  0
   12.0250    9.3070   -5.4490 C   0  0  2  0  0  0  0  0  0  0  0  0
    9.2750    5.6250   -8.9050 C   0  0  0  0  0  0  0  0  0  0  0  0
   12.4540    6.7960   -2.7620 C   0  0  2  0  0  0  0  0  0  0  0  0
  1 34  1  0
  3 17  1  0
  3 14  1  1
  4 11  1  0
  5 18  1  0
  6 23  1  0
  7 16  1  0
  8  2  1  1
  8 19  1  0
  8 15  1  0
  9 35  1  6
  9  3  1  0
 10 26  1  6
 10 38  1  0
 11 36  1  0
 13  5  1  0
 15 31  1  0
 17  4  1  6
 17 32  1  0
 18 16  1  0
 19 30  1  0
 20 34  1  1
 20 24  1  0
 21 23  1  0
 38 22  1  1
 24 14  1  0
 27 29  1  0
 28 29  2  0
 29 12  1  0
 29 35  1  0
 30 23  1  0
 31 25  1  0
 31  1  1  0
 32 10  1  0
 36 33  1  6
 32 36  1  1
 36 13  1  0
 37  9  1  0
 37 20  1  0
 38  7  1  0
M  END
>  <GenAI_Model>  (2) 
DiffSBDD

>  <Protein>  (2) 
generic_title2

>  <num_sample>  (2) 
50

$$$$
DiffSBDD_2
     RDKit          3D

 24 26  0  0  0  0  0  0  0  0999 V2000
    6.9290    5.5320  -11.8540 C   0  0  1  0  0  0  0  0  0  0  0  0
    9.2800    6.3770   -8.8810 C   0  0  0  0  0  0  0  0  0  0  0  0
    7.2040    6.6880  -12.8180 C   0  0  0  0  0  0  0  0  0  0  0  0
   11.6820    8.5840   -9.4300 C   0  0  0  0  0  0  0  0  0  0  0  0
   12.2500    8.0990   -3.3280 N   0  0  0  0  0  0  0  0  0  0  0  0
   10.1690    6.4370   -7.9330 C   0  0  2  0  0  0  0  0  0  0  0  0
    8.1680    3.4780  -12.7550 C   0  0  0  0  0  0  0  0  0  0  0  0
   10.5070    6.2760   -6.1070 C   0  0  2  0  0  0  0  0  0  0  0  0
   12.4400    8.3380   -1.1040 C   0  0  0  0  0  0  0  0  0  0  0  0
   11.7790    7.6830   -4.5940 C   0  0  0  0  0  0  0  0  0  0  0  0
   12.5410    7.4200   -2.2040 C   0  0  0  0  0  0  0  0  0  0  0  0
   11.4440    8.3720   -7.0260 C   0  0  1  0  0  0  0  0  0  0  0  0
    9.2690    5.1080   -9.6510 C   0  0  0  0  0  0  0  0  0  0  0  0
    9.2080    5.2030  -11.1020 C   0  0  0  0  0  0  0  0  0  0  0  0
   10.8300    7.4240   -7.0290 C   0  0  1  0  0  0  0  0  0  0  0  0
   11.7800   10.1570   -5.3140 C   0  0  0  0  0  0  0  0  0  0  0  0
    6.8250    2.9320  -13.3220 C   0  0  0  0  0  0  0  0  0  0  0  0
    5.5510    3.4510  -12.6530 C   0  0  0  0  0  0  0  0  0  0  0  0
   12.7650    6.3520   -2.0230 O   0  0  0  0  0  0  0  0  0  0  0  0
   11.3170    9.1840   -8.1090 C   0  0  0  0  0  0  0  0  0  0  0  0
   11.6360    8.6500   -5.4020 C   0  0  2  0  0  0  0  0  0  0  0  0
    5.6020    4.8770  -12.2410 C   0  0  0  0  0  0  0  0  0  0  0  0
    7.9770    4.4710  -11.6640 N   0  0  0  0  0  0  0  0  0  0  0  0
   11.2370    6.3110   -5.3230 C   0  0  0  0  0  0  0  0  0  0  0  0
  1  3  1  6
  1 23  1  0
  4 20  1  0
  5 11  1  0
  6  2  1  1
 15  6  1  6
  6  8  1  0
  7 23  1  0
  8 24  1  6
 10  5  2  3
 11 19  2  0
 11  9  1  0
 12 20  1  6
 12 21  1  0
 13  2  1  0
 14 13  1  0
 15 12  1  0
 15  8  1  0
 17  7  1  0
 17 18  1  0
 18 22  1  0
 21 16  1  6
 21 10  1  0
 22  1  1  0
 23 14  1  0
 24 10  1  0
M  END
>  <GenAI_Model>  (3) 
DiffSBDD

>  <Protein>  (3) 
generic_title2

>  <num_sample>  (3) 
50

$$$$
DiffSBDD_3
     RDKit          3D

 13 13  0  0  0  0  0  0  0  0999 V2000
    9.4870    6.0530   -9.1290 C   0  0  0  0  0  0  0  0  0  0  0  0
    9.9290    7.2840   -9.8580 C   0  0  0  0  0  0  0  0  0  0  0  0
    8.4530    6.5840  -11.7260 C   0  0  0  0  0  0  0  0  0  0  0  0
   11.9890    6.6940   -2.8110 C   0  0  0  0  0  0  0  0  0  0  0  0
   11.5340    8.1040   -5.2080 C   0  0  0  0  0  0  0  0  0  0  0  0
    8.0430    5.4180  -11.0020 N   0  0  0  0  0  0  0  0  0  0  0  0
   11.9020    7.8850   -3.6690 C   0  0  0  0  0  0  0  0  0  0  0  0
    7.8470    6.8040  -13.3360 Cl  0  0  0  0  0  0  0  0  0  0  0  0
    9.3860    7.4650  -11.1420 C   0  0  0  0  0  0  0  0  0  0  0  0
   10.8140    6.7350   -7.1390 N   0  0  0  0  0  0  0  0  0  0  0  0
   11.3770    6.5880   -5.7780 C   0  0  0  0  0  0  0  0  0  0  0  0
   10.1130    5.7180   -7.7550 C   0  0  0  0  0  0  0  0  0  0  0  0
    8.5590    5.1810   -9.6450 C   0  0  0  0  0  0  0  0  0  0  0  0
  1 12  1  0
  2  1  1  0
  3  9  1  0
  3  6  2  0
  5  7  1  0
  6 13  1  0
  7  4  1  0
  8  3  1  0
  9  2  2  0
 10 11  1  0
 11  5  1  0
 12 10  2  3
 13  1  2  0
M  END
>  <GenAI_Model>  (4) 
DiffSBDD

>  <Protein>  (4) 
generic_title2

>  <num_sample>  (4) 
50

$$$$
DiffSBDD_4
     RDKit          3D

 32 36  0  0  0  0  0  0  0  0999 V2000
    5.1400    5.5480  -10.8350 O   0  0  0  0  0  0  0  0  0  0  0  0
   11.8510    6.7050   -3.6410 C   0  0  0  0  0  0  0  0  0  0  0  0
   11.0900    8.8360   -8.1790 C   0  0  0  0  0  0  0  0  0  0  0  0
    7.8610    5.3980  -12.2440 C   0  0  0  0  0  0  0  0  0  0  0  0
    9.2760    6.0140   -8.8780 C   0  0  0  0  0  0  0  0  0  0  0  0
    9.9280    8.1070   -8.0920 C   0  0  2  0  0  0  0  0  0  0  0  0
   12.0780    7.8840   -7.4810 C   0  0  0  0  0  0  0  0  0  0  0  0
    7.0650    3.5750  -14.1990 C   0  0  0  0  0  0  0  0  0  0  0  0
    8.2060    8.7580  -12.8840 C   0  0  0  0  0  0  0  0  0  0  0  0
    6.7410    4.5000  -12.0650 C   0  0  0  0  0  0  0  0  0  0  0  0
   11.9550    8.3520    0.0230 O   0  0  0  0  0  0  0  0  0  0  0  0
   13.5890    9.4120   -0.7550 F   0  0  0  0  0  0  0  0  0  0  0  0
    9.4810    7.9340  -12.7160 C   0  0  0  0  0  0  0  0  0  0  0  0
   11.3710    7.2040   -6.2550 C   0  0  1  0  0  0  0  0  0  0  0  0
   12.2350    9.4210   -3.3050 C   0  0  0  0  0  0  0  0  0  0  0  0
   12.3280    7.1690   -2.5060 C   0  0  2  0  0  0  0  0  0  0  0  0
   10.3640    6.7850   -5.9600 C   0  0  0  0  0  0  0  0  0  0  0  0
    9.4120    7.0800  -11.5090 C   0  0  1  0  0  0  0  0  0  0  0  0
   11.7930    7.7360   -4.6680 C   0  0  0  0  0  0  0  0  0  0  0  0
   10.1920    7.5350  -10.3230 C   0  0  0  0  0  0  0  0  0  0  0  0
    8.4320    5.3300  -13.4660 C   0  0  0  0  0  0  0  0  0  0  0  0
    8.2620    6.1820  -11.1420 C   0  0  2  0  0  0  0  0  0  0  0  0
    8.4470    5.3960   -9.8260 C   0  0  0  0  0  0  0  0  0  0  0  0
    6.3160    3.6720  -13.0870 C   0  0  0  0  0  0  0  0  0  0  0  0
   12.6810    6.3850   -1.4880 F   0  0  0  0  0  0  0  0  0  0  0  0
   12.3320    9.1350   -1.0060 N   0  0  0  0  0  0  0  0  0  0  0  0
   11.9800    9.0190   -4.5260 C   0  0  0  0  0  0  0  0  0  0  0  0
    8.0480    4.5620  -14.4790 C   0  0  0  0  0  0  0  0  0  0  0  0
   12.2550    8.5450   -2.2390 C   0  0  1  0  0  0  0  0  0  0  0  0
    9.9080    7.7490   -6.5440 C   0  0  2  0  0  0  0  0  0  0  0  0
    5.8540    4.3690  -10.8490 C   0  0  0  0  0  0  0  0  0  0  0  0
    9.9520    7.2250   -9.0440 C   0  0  2  0  0  0  0  0  0  0  0  0
  2 16  1  0
  3  7  1  0
  4 10  1  0
  6  3  1  1
  6 30  1  0
  8 24  1  0
  9 13  1  0
 10 31  1  0
 14  7  1  0
 14 17  1  0
 14 19  1  6
 15 29  1  0
 16 29  1  0
 16 25  1  1
 18 13  1  1
 18 22  1  0
 18 20  1  0
 19 27  1  0
 19  2  1  0
 21  4  2  0
 22  4  1  6
 22 23  1  0
 23  5  1  0
 24 10  2  0
 26 12  1  0
 26 11  1  0
 27 15  2  0
 28  8  2  0
 28 21  1  0
 29 26  1  1
 30 14  1  0
 30 17  1  6
 31  1  1  0
 32 20  1  6
 32  5  1  0
 32  6  1  0
M  END
>  <GenAI_Model>  (5) 
DiffSBDD

>  <Protein>  (5) 
generic_title2

>  <num_sample>  (5) 
50

$$$$
DiffSBDD_5
     RDKit          3D

 36 39  0  0  0  0  0  0  0  0999 V2000
    7.1870    4.8470  -12.6950 C   0  0  1  0  0  0  0  0  0  0  0  0
    9.6450    6.5380   -9.4120 N   0  0  0  0  0  0  0  0  0  0  0  0
   11.3460    8.6240  -10.7710 C   0  0  0  0  0  0  0  0  0  0  0  0
    7.0290    5.2310  -14.0680 C   0  0  0  0  0  0  0  0  0  0  0  0
   10.3240    7.0070   -7.0140 C   0  0  2  0  0  0  0  0  0  0  0  0
    8.0110    5.8730  -12.0110 N   0  0  0  0  0  0  0  0  0  0  0  0
    9.9940    6.5070  -10.8350 C   0  0  1  0  0  0  0  0  0  0  0  0
    6.0390    4.2550  -10.7440 O   0  0  0  0  0  0  0  0  0  0  0  0
    6.9840    4.6500  -15.2070 C   0  0  0  0  0  0  0  0  0  0  0  0
    9.1120    5.4780  -11.3900 C   0  0  0  0  0  0  0  0  0  0  0  0
   12.4490    9.4440   -2.5260 C   0  0  0  0  0  0  0  0  0  0  0  0
    8.4270    6.4410   -9.1060 O   0  0  0  0  0  0  0  0  0  0  0  0
    6.3180    6.6270  -15.8400 C   0  0  1  0  0  0  0  0  0  0  0  0
    5.8920    4.4910  -11.9540 C   0  0  0  0  0  0  0  0  0  0  0  0
   11.5980    6.9120   -4.0080 C   0  0  0  0  0  0  0  0  0  0  0  0
   11.4880    8.5450   -6.0150 C   0  0  0  0  0  0  0  0  0  0  0  0
    6.7850    5.2860  -16.2020 C   0  0  0  0  0  0  0  0  0  0  0  0
   12.9270    9.1100   -0.2050 O   0  0  0  0  0  0  0  0  0  0  0  0
   10.7070    6.8200   -0.6790 C   0  0  0  0  0  0  0  0  0  0  0  0
   13.3490    6.5170   -0.5720 O   0  0  0  0  0  0  0  0  0  0  0  0
   12.2830    8.8520   -6.8600 O   0  0  0  0  0  0  0  0  0  0  0  0
   11.7820    6.3800   -2.8850 C   0  0  0  0  0  0  0  0  0  0  0  0
   11.8510    8.2800   -4.5700 C   0  0  0  0  0  0  0  0  0  0  0  0
    4.8050    4.0920  -12.5980 O   0  0  0  0  0  0  0  0  0  0  0  0
    6.4570    6.8300  -14.3780 S   0  0  0  0  0  0  0  0  0  0  0  0
   12.1600    7.2340   -1.4680 C   0  0  1  0  0  0  0  0  0  0  0  0
   10.1820    7.9380  -11.4120 C   0  0  0  0  0  0  0  0  0  0  0  0
   11.1850    5.7700   -7.1610 C   0  0  0  0  0  0  0  0  0  0  0  0
    5.8460    7.6820  -17.0880 Cl  0  0  0  0  0  0  0  0  0  0  0  0
    9.6320    8.3010   -7.4870 C   0  0  0  0  0  0  0  0  0  0  0  0
    8.8630    8.8050  -11.5020 C   0  0  0  0  0  0  0  0  0  0  0  0
   12.2630    9.2700   -3.8250 C   0  0  0  0  0  0  0  0  0  0  0  0
   10.1720    8.1200   -6.4870 N   0  0  0  0  0  0  0  0  0  0  0  0
    9.4000    4.2270  -11.3320 O   0  0  0  0  0  0  0  0  0  0  0  0
   10.4930    6.1760   -8.3760 C   0  0  1  0  0  0  0  0  0  0  0  0
   12.4830    8.7130   -1.5040 C   0  0  0  0  0  0  0  0  0  0  0  0
  1  6  1  1
  1 14  1  0
  2 12  1  0
  4  1  1  0
  5 30  1  6
  5 33  1  0
  6 10  1  0
  7 27  1  6
  7  2  1  0
  9  4  2  0
 10 34  2  0
 10  7  1  0
 11 36  2  0
 13 29  1  6
 13 25  1  0
 14  8  1  0
 15 22  2  0
 16 23  1  0
 17 13  1  0
 17  9  1  0
 21 16  2  0
 22 26  1  0
 23 15  1  0
 23 32  2  0
 24 14  2  0
 25  4  1  0
 26 19  1  1
 26 20  1  0
 27  3  1  0
 28  5  1  0
 30 33  1  0
 31 27  1  0
 32 11  1  0
 33 16  1  0
 35  2  1  1
 35 28  1  0
 35  5  1  0
 36 26  1  0
 36 18  1  0
M  END
>  <GenAI_Model>  (6) 
DiffSBDD

>  <Protein>  (6) 
generic_title2

>  <num_sample>  (6) 
50

$$$$
DiffSBDD_6
     RDKit          3D

 36 39  0  0  0  0  0  0  0  0999 V2000
   11.5040    6.1730   -4.7640 C   0  0  0  0  0  0  0  0  0  0  0  0
   11.0770    6.7730   -6.2670 C   0  0  1  0  0  0  0  0  0  0  0  0
    9.5980    6.1830   -9.5140 N   0  0  0  0  0  0  0  0  0  0  0  0
    8.8910    4.0860   -9.8810 C   0  0  0  0  0  0  0  0  0  0  0  0
    6.7180    3.5580  -14.5490 O   0  0  0  0  0  0  0  0  0  0  0  0
    9.0340    5.3200  -10.4370 C   0  0  2  0  0  0  0  0  0  0  0  0
    5.2960    4.1340  -12.7740 C   0  0  0  0  0  0  0  0  0  0  0  0
   11.5150    8.1440   -5.7860 C   0  0  0  0  0  0  0  0  0  0  0  0
   12.9330   10.8230   -6.7020 N   0  0  0  0  0  0  0  0  0  0  0  0
   11.9340    8.5120   -4.7450 C   0  0  0  0  0  0  0  0  0  0  0  0
    5.9820    6.4290  -14.0760 O   0  0  0  0  0  0  0  0  0  0  0  0
    6.6730    4.1570  -13.2910 C   0  0  2  0  0  0  0  0  0  0  0  0
   11.6650   10.4780   -6.3260 C   0  0  0  0  0  0  0  0  0  0  0  0
   11.3410    6.5850   -7.6230 C   0  0  2  0  0  0  0  0  0  0  0  0
   11.7750    7.5450   -8.7320 C   0  0  1  0  0  0  0  0  0  0  0  0
    9.2040    6.2510   -8.2310 C   0  0  0  0  0  0  0  0  0  0  0  0
   12.4600    7.4970   -1.1800 C   0  0  0  0  0  0  0  0  0  0  0  0
    6.2300    7.4110  -15.0050 C   0  0  0  0  0  0  0  0  0  0  0  0
   11.5160    7.8000  -10.1760 C   0  0  0  0  0  0  0  0  0  0  0  0
   11.1750    9.2690   -6.9120 C   0  0  0  0  0  0  0  0  0  0  0  0
    5.3600    7.4780  -16.0820 C   0  0  0  0  0  0  0  0  0  0  0  0
    7.7670    6.3090  -12.3700 C   0  0  0  0  0  0  0  0  0  0  0  0
    7.1420    5.6360  -13.5680 C   0  0  2  0  0  0  0  0  0  0  0  0
   11.9250    8.3110   -3.4190 C   0  0  0  0  0  0  0  0  0  0  0  0
    8.8010    5.5580  -11.7460 C   0  0  0  0  0  0  0  0  0  0  0  0
   11.3850    6.9470   -0.6680 F   0  0  0  0  0  0  0  0  0  0  0  0
   10.7500    8.1350   -8.0620 C   0  0  2  0  0  0  0  0  0  0  0  0
    9.9960    7.5120   -9.9390 C   0  0  0  0  0  0  0  0  0  0  0  0
    9.2300    7.7750   -7.7350 C   0  0  0  0  0  0  0  0  0  0  0  0
    8.8950    4.0460   -8.5790 C   0  0  0  0  0  0  0  0  0  0  0  0
   13.1360    6.4770   -1.6530 F   0  0  0  0  0  0  0  0  0  0  0  0
   10.8680   10.6700   -5.4860 O   0  0  0  0  0  0  0  0  0  0  0  0
   13.1540    8.1040   -0.1950 F   0  0  0  0  0  0  0  0  0  0  0  0
   12.1060    8.5630   -2.0770 C   0  0  0  0  0  0  0  0  0  0  0  0
   11.6120    7.1800   -3.6870 C   0  0  0  0  0  0  0  0  0  0  0  0
    8.2860    5.5930   -7.3520 O   0  0  0  0  0  0  0  0  0  0  0  0
  1 35  1  0
  2  8  1  0
  2  1  1  1
  3 16  1  0
  4 30  2  0
  5 12  1  0
  6 25  1  6
  6  4  1  0
  6  3  1  0
  8 10  1  0
  9 13  1  0
 10 24  1  0
 11 23  1  0
 12  7  1  6
 13 32  2  0
 14  2  1  1
 15 27  1  0
 15 14  1  0
 16 29  1  0
 16 36  2  0
 17 26  1  0
 17 33  1  0
 18 11  1  0
 19 28  1  0
 15 19  1  6
 20 13  1  0
 20  8  2  0
 21 18  1  0
 22 25  1  0
 23 12  1  0
 23 22  1  1
 24 34  1  0
 27 29  1  6
 27 14  1  0
 27 20  1  0
 28  3  1  0
 31 17  1  0
 34 17  1  0
 35 24  2  0
M  END
>  <GenAI_Model>  (7) 
DiffSBDD

>  <Protein>  (7) 
generic_title2

>  <num_sample>  (7) 
50

$$$$
DiffSBDD_7
     RDKit          3D

 30 35  0  0  0  0  0  0  0  0999 V2000
   12.2330    8.1790   -2.5630 C   0  0  0  0  0  0  0  0  0  0  0  0
    6.3020    2.8340  -12.1570 C   0  0  0  0  0  0  0  0  0  0  0  0
   11.2560    9.4880   -5.7770 N   0  0  0  0  0  0  0  0  0  0  0  0
   10.8450    7.4210   -8.4620 C   0  0  0  0  0  0  0  0  0  0  0  0
    6.2250    5.0900  -13.4800 C   0  0  1  0  0  0  0  0  0  0  0  0
    7.4190    8.2320  -12.8350 F   0  0  0  0  0  0  0  0  0  0  0  0
   12.0070    5.9100   -3.0750 C   0  0  0  0  0  0  0  0  0  0  0  0
   11.4210    7.5070   -4.7090 N   0  0  0  0  0  0  0  0  0  0  0  0
   12.4250    6.8560   -2.1300 C   0  0  0  0  0  0  0  0  0  0  0  0
    7.0590    4.9570  -10.9290 C   0  0  1  0  0  0  0  0  0  0  0  0
   10.5880    7.4170   -7.1400 N   0  0  0  0  0  0  0  0  0  0  0  0
    6.9400    4.2260  -12.2650 C   0  0  1  0  0  0  0  0  0  0  0  0
    7.9900    4.6110   -9.7540 C   0  0  2  0  0  0  0  0  0  0  0  0
    5.6110    6.7700  -11.7560 C   0  0  0  0  0  0  0  0  0  0  0  0
   11.0460    8.0540   -5.9680 C   0  0  0  0  0  0  0  0  0  0  0  0
   11.6130    9.6800   -4.4260 N   0  0  0  0  0  0  0  0  0  0  0  0
   11.5330    6.2430   -4.3050 C   0  0  0  0  0  0  0  0  0  0  0  0
   11.5010    7.6470  -11.3640 C   0  0  0  0  0  0  0  0  0  0  0  0
    5.8650    6.3120  -13.1920 C   0  0  1  0  0  0  0  0  0  0  0  0
   10.3170    6.9880  -11.4170 C   0  0  0  0  0  0  0  0  0  0  0  0
   11.7650    8.4890   -3.8400 C   0  0  0  0  0  0  0  0  0  0  0  0
    9.5650    6.4500  -10.4180 C   0  0  0  0  0  0  0  0  0  0  0  0
   11.8670    8.0250   -8.9960 N   0  0  0  0  0  0  0  0  0  0  0  0
    8.9150    5.4360   -8.1700 S   0  0  0  0  0  0  0  0  0  0  0  0
    6.8980    6.9620  -12.3060 C   0  0  1  0  0  0  0  0  0  0  0  0
   12.4150    9.1390   -1.6450 N   0  0  0  0  0  0  0  0  0  0  0  0
    6.8800    5.0820  -14.5580 O   0  0  0  0  0  0  0  0  0  0  0  0
    9.9280    6.5200   -9.1010 C   0  0  2  0  0  0  0  0  0  0  0  0
   12.2500    8.0930  -10.3050 C   0  0  0  0  0  0  0  0  0  0  0  0
    8.3990    5.5490  -10.7240 N   0  0  0  0  0  0  0  0  0  0  0  0
  1  9  1  0
  1 26  1  0
  3 16  1  0
  4 11  1  0
  5 27  1  6
  5 12  1  0
  7  9  2  0
  8 17  1  0
  8 21  1  0
 10 12  1  0
 10 30  1  6
 10 13  1  0
 11 15  1  0
 12  2  1  1
 13 24  1  1
 15  3  2  0
 15  8  1  0
 16 21  1  0
 17  7  1  0
 18 29  2  0
 19  5  1  0
 19 25  1  0
 19 14  1  1
 20 18  1  0
 20 22  2  0
 21  1  2  0
 23  4  2  0
 25  6  1  6
 25 14  1  0
 28 22  1  0
 28  4  1  0
 28 24  1  1
 29 23  1  0
 30 22  1  0
 30 13  1  0
M  END
>  <GenAI_Model>  (8) 
DiffSBDD

>  <Protein>  (8) 
generic_title2

>  <num_sample>  (8) 
50

$$$$
DiffSBDD_8
     RDKit          3D

 33 36  0  0  0  0  0  0  0  0999 V2000
   11.5200    8.1580   -6.5410 N   0  0  0  0  0  0  0  0  0  0  0  0
   12.4280    9.5160   -3.3990 C   0  0  0  0  0  0  0  0  0  0  0  0
    9.4310    5.7090   -8.2610 C   0  0  1  0  0  0  0  0  0  0  0  0
   12.3740    7.7520   -2.1700 N   0  0  0  0  0  0  0  0  0  0  0  0
   11.7440    7.4330  -10.1530 O   0  0  0  0  0  0  0  0  0  0  0  0
    8.9690    4.6680  -11.6110 C   0  0  0  0  0  0  0  0  0  0  0  0
   11.0060    6.2280   -3.4260 F   0  0  0  0  0  0  0  0  0  0  0  0
    7.7390    3.9930  -11.2310 C   0  0  0  0  0  0  0  0  0  0  0  0
    9.5070    5.5220  -10.8020 N   0  0  0  0  0  0  0  0  0  0  0  0
    9.4490    6.7610  -10.4060 C   0  0  1  0  0  0  0  0  0  0  0  0
   11.6350    7.4170   -3.3150 C   0  0  0  0  0  0  0  0  0  0  0  0
    5.6500    7.2570  -15.3760 C   0  0  0  0  0  0  0  0  0  0  0  0
    9.5890    7.0630   -8.9160 C   0  0  2  0  0  0  0  0  0  0  0  0
   11.0450    6.5220  -12.2480 O   0  0  0  0  0  0  0  0  0  0  0  0
   12.7810    6.9730   -1.1360 O   0  0  0  0  0  0  0  0  0  0  0  0
    6.6030    4.4210  -11.8330 C   0  0  0  0  0  0  0  0  0  0  0  0
   10.9420    9.1670   -9.3510 C   0  0  0  0  0  0  0  0  0  0  0  0
   11.9090    6.7520   -6.4480 C   0  0  0  0  0  0  0  0  0  0  0  0
   11.2240    8.8140   -7.8750 C   0  0  0  0  0  0  0  0  0  0  0  0
   11.8110    8.6330   -4.1650 C   0  0  2  0  0  0  0  0  0  0  0  0
   11.6250    9.0210   -5.5980 C   0  0  0  0  0  0  0  0  0  0  0  0
    8.7350    5.5990   -6.9220 C   0  0  0  0  0  0  0  0  0  0  0  0
   10.6970    7.2430  -11.0440 C   0  0  2  0  0  0  0  0  0  0  0  0
   10.9880    7.7970   -8.9210 C   0  0  1  0  0  0  0  0  0  0  0  0
    5.1160    6.0610  -15.9360 O   0  0  0  0  0  0  0  0  0  0  0  0
   11.4320   10.2660   -5.8680 O   0  0  0  0  0  0  0  0  0  0  0  0
    6.1960    6.8370  -14.1630 C   0  0  0  0  0  0  0  0  0  0  0  0
   13.4900    7.7630   -0.3570 C   0  0  0  0  0  0  0  0  0  0  0  0
   12.9380    8.8700   -2.3100 C   0  0  0  0  0  0  0  0  0  0  0  0
    5.5070    5.7370  -13.7220 O   0  0  0  0  0  0  0  0  0  0  0  0
    6.4630    4.7670  -13.3310 C   0  0  0  0  0  0  0  0  0  0  0  0
    7.9790    5.4020   -8.1970 N   0  0  0  0  0  0  0  0  0  0  0  0
    7.3420    4.3690  -13.9880 O   0  0  0  0  0  0  0  0  0  0  0  0
  1 18  1  0
  1 21  1  0
  2 29  1  0
  3 32  1  0
  3 22  1  1
  4 15  1  0
  5 24  1  0
  6  8  1  0
  6  9  1  0
 10  9  1  1
 10 13  1  0
 11  7  1  0
 11  4  1  0
 12 27  1  0
 13  3  1  1
 15 28  1  0
 16  8  1  0
 17 19  1  0
 19  1  1  0
 20 21  1  6
 20  2  1  0
 20 11  1  0
 23 14  1  6
 23 10  1  0
 23  5  1  0
 24 17  1  6
 24 13  1  0
 24 19  1  0
 25 12  1  0
 26 21  2  0
 27 30  1  0
 29  4  1  0
 30 31  1  0
 31 16  1  0
 32 22  1  0
 33 31  2  0
M  END
>  <GenAI_Model>  (9) 
DiffSBDD

>  <Protein>  (9) 
generic_title2

>  <num_sample>  (9) 
50

$$$$
DiffSBDD_9
     RDKit          3D

 40 41  0  0  0  0  0  0  0  0999 V2000
   11.9050    9.6160   -5.1720 C   0  0  0  0  0  0  0  0  0  0  0  0
    6.9320    7.2300  -14.3340 F   0  0  0  0  0  0  0  0  0  0  0  0
    9.2900    5.7480  -11.1890 C   0  0  0  0  0  0  0  0  0  0  0  0
    7.7900    5.2460  -14.7810 O   0  0  0  0  0  0  0  0  0  0  0  0
   11.1180    7.6680  -11.2130 F   0  0  0  0  0  0  0  0  0  0  0  0
    9.0720    6.6000   -8.5060 C   0  0  2  0  0  0  0  0  0  0  0  0
   12.8170    8.3130   -0.4980 O   0  0  0  0  0  0  0  0  0  0  0  0
   12.1000    8.6850   -7.8900 C   0  0  0  0  0  0  0  0  0  0  0  0
    9.8200    7.6490   -7.4990 C   0  0  2  0  0  0  0  0  0  0  0  0
    6.5690    6.6600  -16.4630 F   0  0  0  0  0  0  0  0  0  0  0  0
   12.5590    7.7190   -8.8520 O   0  0  0  0  0  0  0  0  0  0  0  0
   12.7550    7.6400   -1.2310 C   0  0  0  0  0  0  0  0  0  0  0  0
    8.0850    4.1500  -12.5360 C   0  0  0  0  0  0  0  0  0  0  0  0
    9.0910    6.2760  -12.3160 C   0  0  0  0  0  0  0  0  0  0  0  0
    6.6960    3.4840  -14.3270 O   0  0  0  0  0  0  0  0  0  0  0  0
    4.4520    6.0390  -14.8030 F   0  0  0  0  0  0  0  0  0  0  0  0
   11.6080    8.6290   -4.4870 C   0  0  0  0  0  0  0  0  0  0  0  0
   12.6800   10.0810   -6.0520 C   0  0  0  0  0  0  0  0  0  0  0  0
    4.7640    4.1160  -13.3350 F   0  0  0  0  0  0  0  0  0  0  0  0
   10.4460    8.3200   -4.9400 O   0  0  0  0  0  0  0  0  0  0  0  0
    6.6270    6.0080  -15.0500 C   0  0  0  0  0  0  0  0  0  0  0  0
   13.0360    9.4910   -7.2650 N   0  0  0  0  0  0  0  0  0  0  0  0
    6.0130    4.6290  -13.5680 C   0  0  0  0  0  0  0  0  0  0  0  0
    8.6970    5.1450   -7.8590 C   0  0  0  0  0  0  0  0  0  0  0  0
    9.5210    9.1110  -10.6940 O   0  0  0  0  0  0  0  0  0  0  0  0
    5.8620    5.6700  -12.3490 F   0  0  0  0  0  0  0  0  0  0  0  0
    7.7350    4.8530  -13.3610 C   0  0  2  0  0  0  0  0  0  0  0  0
    9.6710    6.5410   -9.8610 C   0  0  2  0  0  0  0  0  0  0  0  0
    9.2410    4.4480  -10.9060 C   0  0  0  0  0  0  0  0  0  0  0  0
    9.5730    8.8290   -8.2010 O   0  0  0  0  0  0  0  0  0  0  0  0
   10.0280    7.8890  -10.4740 C   0  0  1  0  0  0  0  0  0  0  0  0
    7.4330    4.8680   -8.4300 C   0  0  0  0  0  0  0  0  0  0  0  0
    9.8380    4.2330   -8.2890 C   0  0  0  0  0  0  0  0  0  0  0  0
   12.2910    6.5150   -1.7770 C   0  0  0  0  0  0  0  0  0  0  0  0
   10.7970    8.8870   -7.6730 C   0  0  2  0  0  0  0  0  0  0  0  0
    8.7570    3.9530  -11.4410 C   0  0  0  0  0  0  0  0  0  0  0  0
    5.2780    5.3230  -15.0650 C   0  0  0  0  0  0  0  0  0  0  0  0
   12.1940    6.2960   -3.0730 C   0  0  0  0  0  0  0  0  0  0  0  0
    8.0180    6.0060  -12.8150 C   0  0  0  0  0  0  0  0  0  0  0  0
   12.3170    7.7220   -3.5290 C   0  0  0  0  0  0  0  0  0  0  0  0
  1 17  1  0
  3 29  1  0
 28  3  1  6
  6 24  1  1
  8 22  1  0
  9  6  1  0
 10 21  1  0
 11  8  2  0
 12  7  2  0
 13 36  1  0
 14  3  1  0
 15 23  1  0
 17 40  1  0
 18  1  1  0
 20 17  2  0
 21  4  1  0
 21  2  1  0
 22 18  1  0
 23 27  1  0
 23 19  1  0
 23 26  1  0
 31 25  1  6
 27  4  1  6
 27 39  1  0
 27 13  1  0
 28 31  1  0
 28  6  1  0
 30 35  1  0
  9 30  1  6
 31  5  1  0
 32 24  1  0
 33 24  1  0
 34 12  1  0
 35  8  1  6
 35  9  1  0
 36 29  2  0
 37 21  1  0
 37 16  1  0
 38 34  1  0
 39 14  1  0
 40 38  1  0
M  END
>  <GenAI_Model>  (10) 
DiffSBDD

>  <Protein>  (10) 
generic_title2

>  <num_sample>  (10) 
50

$$$$
DiffSBDD_10
     RDKit          3D

 27 32  0  0  0  0  0  0  0  0999 V2000
   10.1250    6.9300   -8.3340 C   0  0  2  0  0  0  0  0  0  0  0  0
   11.9480    7.9090   -7.0980 C   0  0  2  0  0  0  0  0  0  0  0  0
   12.5970    6.3560   -1.7690 O   0  0  0  0  0  0  0  0  0  0  0  0
   11.3640    8.2160   -0.2190 F   0  0  0  0  0  0  0  0  0  0  0  0
   11.2070   10.1330   -4.6690 S   0  0  0  0  0  0  0  0  0  0  0  0
   11.5630    7.9350   -4.8160 C   0  0  1  0  0  0  0  0  0  0  0  0
   11.3600    6.7200   -4.4960 C   0  0  2  0  0  0  0  0  0  0  0  0
    9.1140    7.5430   -7.1630 C   0  0  2  0  0  0  0  0  0  0  0  0
   12.4950   10.1140   -1.2590 C   0  0  0  0  0  0  0  0  0  0  0  0
   11.2800   11.0590   -3.2590 O   0  0  0  0  0  0  0  0  0  0  0  0
   11.0340    8.0140   -8.2850 C   0  0  1  0  0  0  0  0  0  0  0  0
   12.1690   10.6120   -5.2760 O   0  0  0  0  0  0  0  0  0  0  0  0
   11.7450    7.1410   -2.3340 C   0  0  1  0  0  0  0  0  0  0  0  0
   12.2740    8.4970   -3.0350 C   0  0  2  0  0  0  0  0  0  0  0  0
   10.9880    7.6290   -5.9840 C   0  0  2  0  0  0  0  0  0  0  0  0
   11.7640    7.9790   -9.4960 C   0  0  0  0  0  0  0  0  0  0  0  0
   13.5910    8.5670   -3.1870 F   0  0  0  0  0  0  0  0  0  0  0  0
   13.0390    8.6360   -8.9970 C   0  0  0  0  0  0  0  0  0  0  0  0
   10.6880    6.3580   -3.1820 C   0  0  0  0  0  0  0  0  0  0  0  0
   11.6610    9.6350   -2.3180 C   0  0  1  0  0  0  0  0  0  0  0  0
    9.8390    7.5150   -6.0210 O   0  0  0  0  0  0  0  0  0  0  0  0
    9.9290   10.0470   -4.9030 O   0  0  0  0  0  0  0  0  0  0  0  0
   12.7120    9.0370   -7.6770 O   0  0  0  0  0  0  0  0  0  0  0  0
   12.0830    5.6730   -5.0180 F   0  0  0  0  0  0  0  0  0  0  0  0
    8.6890    6.4360   -8.0050 C   0  0  0  0  0  0  0  0  0  0  0  0
   10.3830    9.3180   -8.3150 F   0  0  0  0  0  0  0  0  0  0  0  0
   12.1730    7.3440   -0.7790 C   0  0  2  0  0  0  0  0  0  0  0  0
  1 11  1  0
  1 25  1  6
  1  8  1  0
  2 23  1  1
  2 15  1  0
  3 27  1  0
  5 10  1  0
  6  5  1  1
  6  7  1  0
  7 24  1  6
  7 19  1  0
  8 25  1  1
  8 21  1  0
 10 20  1  0
 11 26  1  1
 11  2  1  0
 12  5  1  0
 13 19  1  1
 13  3  1  0
 13 27  1  0
 14 17  1  1
 14 13  1  0
 14 20  1  0
 15 21  1  6
 15  6  1  0
 15  7  1  0
 16 18  1  0
 16 11  1  0
 18 23  1  0
 20  9  1  1
 22  5  1  0
 27  4  1  1
M  END
>  <GenAI_Model>  (11) 
DiffSBDD

>  <Protein>  (11) 
generic_title2

>  <num_sample>  (11) 
50

$$$$
DiffSBDD_11
     RDKit          3D

 22 23  0  0  0  0  0  0  0  0999 V2000
   11.8340    7.7940   -3.5830 N   0  0  0  0  0  0  0  0  0  0  0  0
   10.8990    7.6630   -9.4090 O   0  0  0  0  0  0  0  0  0  0  0  0
   12.6210    9.4740   -2.4310 C   0  0  0  0  0  0  0  0  0  0  0  0
    8.5580    4.9090   -8.9070 C   0  0  0  0  0  0  0  0  0  0  0  0
   11.0700    5.9350   -4.6550 O   0  0  0  0  0  0  0  0  0  0  0  0
   11.9330    9.2810   -3.4900 N   0  0  0  0  0  0  0  0  0  0  0  0
   13.1370    8.1270   -0.5090 C   0  0  0  0  0  0  0  0  0  0  0  0
   12.8920   10.6080   -1.8860 N   0  0  0  0  0  0  0  0  0  0  0  0
   12.4700    7.1920   -2.5300 C   0  0  0  0  0  0  0  0  0  0  0  0
   11.4530    7.2530   -4.8230 C   0  0  0  0  0  0  0  0  0  0  0  0
   13.0090    8.2110   -1.9060 C   0  0  0  0  0  0  0  0  0  0  0  0
    8.8430    4.7280  -10.1810 C   0  0  0  0  0  0  0  0  0  0  0  0
   10.2660    6.5340   -8.7840 C   0  0  1  0  0  0  0  0  0  0  0  0
   10.1230    6.1130   -7.5980 C   0  0  0  0  0  0  0  0  0  0  0  0
   10.1040    6.6090  -11.7030 C   0  0  0  0  0  0  0  0  0  0  0  0
   11.4900    8.3470   -6.1620 C   0  0  0  0  0  0  0  0  0  0  0  0
    9.4750    7.1190   -6.7060 C   0  0  0  0  0  0  0  0  0  0  0  0
   12.8560    5.9580   -1.8610 C   0  0  0  0  0  0  0  0  0  0  0  0
    9.1940    6.9950  -10.9520 N   0  0  0  0  0  0  0  0  0  0  0  0
   13.6040    8.2830    0.4030 N   0  0  0  0  0  0  0  0  0  0  0  0
    9.2020    6.2400   -9.4130 C   0  0  0  0  0  0  0  0  0  0  0  0
   10.3230    8.4330   -6.7620 C   0  0  0  0  0  0  0  0  0  0  0  0
  1  6  1  0
  1  9  1  0
  3 11  1  0
  3  8  1  0
  6  3  2  0
  7 20  3  0
  9 11  2  0
  9 18  1  0
 10  5  2  0
 10  1  1  0
 11  7  1  0
 12 21  1  0
 12  4  1  0
 13  2  1  1
 13 14  1  0
 14 17  1  0
 15 19  1  0
 16 10  1  0
 19 21  1  0
 21  4  1  0
 21 13  1  0
 22 17  1  0
 22 16  1  0
M  END
>  <GenAI_Model>  (12) 
DiffSBDD

>  <Protein>  (12) 
generic_title2

>  <num_sample>  (12) 
50

$$$$
DiffSBDD_12
     RDKit          3D

 24 25  0  0  0  0  0  0  0  0999 V2000
    6.4490    5.9850  -13.5490 C   0  0  2  0  0  0  0  0  0  0  0  0
   12.0210    7.4870   -3.1480 C   0  0  0  0  0  0  0  0  0  0  0  0
   12.1010    8.9330   -3.0960 C   0  0  0  0  0  0  0  0  0  0  0  0
   11.5300    7.5900   -5.4510 C   0  0  0  0  0  0  0  0  0  0  0  0
   11.4950    8.8690   -5.3970 C   0  0  0  0  0  0  0  0  0  0  0  0
   10.0840    6.6220   -9.5490 C   0  0  0  0  0  0  0  0  0  0  0  0
    5.6740    7.4060  -15.4680 C   0  0  0  0  0  0  0  0  0  0  0  0
    5.7770    7.2930  -13.9650 C   0  0  0  0  0  0  0  0  0  0  0  0
   12.2870    6.8120   -1.9280 C   0  0  0  0  0  0  0  0  0  0  0  0
    9.1070    5.4060  -11.5560 C   0  0  0  0  0  0  0  0  0  0  0  0
   10.6720    8.0220   -7.6410 C   0  0  0  0  0  0  0  0  0  0  0  0
    9.0050    5.7700  -10.1120 C   0  0  1  0  0  0  0  0  0  0  0  0
    9.2120    6.2080   -7.2760 C   0  0  0  0  0  0  0  0  0  0  0  0
    6.7630    5.8360  -12.0380 C   0  0  0  0  0  0  0  0  0  0  0  0
    8.8330    4.5700   -9.2340 C   0  0  0  0  0  0  0  0  0  0  0  0
    7.8440    4.7510  -12.1410 C   0  0  0  0  0  0  0  0  0  0  0  0
    8.3980    5.0570   -7.8460 C   0  0  0  0  0  0  0  0  0  0  0  0
   11.2880    7.2680   -6.7360 O   0  0  0  0  0  0  0  0  0  0  0  0
    7.6080    6.3900  -14.0400 F   0  0  0  0  0  0  0  0  0  0  0  0
   11.7020    6.7900   -4.2950 C   0  0  0  0  0  0  0  0  0  0  0  0
   11.9210    9.5590   -4.2960 C   0  0  0  0  0  0  0  0  0  0  0  0
   10.1030    5.7580  -12.2390 O   0  0  0  0  0  0  0  0  0  0  0  0
   12.3230    9.4760   -2.0540 O   0  0  0  0  0  0  0  0  0  0  0  0
    9.5590    7.1990   -8.2740 C   0  0  2  0  0  0  0  0  0  0  0  0
  1 19  1  6
  1 14  1  0
  2  3  1  0
  2  9  1  0
  3 23  2  0
  4  5  1  0
  4 20  2  0
  5 21  1  0
  6 24  1  0
  7  8  1  0
  8  1  1  0
 11 18  1  0
 12 10  1  6
 12  6  1  0
 12 15  1  0
 15 17  1  0
 16 14  1  0
 16 10  1  0
 17 13  1  0
 18  4  1  0
 20  2  1  0
 21  3  1  0
 22 10  2  0
 24 11  1  1
 24 13  1  0
M  END
>  <GenAI_Model>  (13) 
DiffSBDD

>  <Protein>  (13) 
generic_title2

>  <num_sample>  (13) 
50

$$$$
DiffSBDD_13
     RDKit          3D

 28 30  0  0  0  0  0  0  0  0999 V2000
   12.9650    6.1090   -1.5470 O   0  0  0  0  0  0  0  0  0  0  0  0
   12.4460    6.4310   -2.4050 C   0  0  0  0  0  0  0  0  0  0  0  0
   10.0170    6.2990  -12.6290 C   0  0  0  0  0  0  0  0  0  0  0  0
   11.9560   10.5020   -3.0630 F   0  0  0  0  0  0  0  0  0  0  0  0
    9.0280    5.8360  -10.2090 C   0  0  0  0  0  0  0  0  0  0  0  0
    7.2230    6.2140  -15.2150 F   0  0  0  0  0  0  0  0  0  0  0  0
   11.8060    6.8000   -3.2090 C   0  0  0  0  0  0  0  0  0  0  0  0
    6.3460    4.4440  -12.2620 C   0  0  0  0  0  0  0  0  0  0  0  0
    6.2520    6.2010  -14.2660 C   0  0  0  0  0  0  0  0  0  0  0  0
    9.0540    5.3700   -8.6000 C   0  0  0  0  0  0  0  0  0  0  0  0
   13.0130    9.1310   -0.6730 C   0  0  0  0  0  0  0  0  0  0  0  0
    5.8370    7.4500  -14.3180 F   0  0  0  0  0  0  0  0  0  0  0  0
   11.2150    6.5030   -4.4490 C   0  0  0  0  0  0  0  0  0  0  0  0
   12.0950    8.3310   -2.9120 C   0  0  1  0  0  0  0  0  0  0  0  0
   10.5030    6.7500   -6.7480 C   0  0  0  0  0  0  0  0  0  0  0  0
   10.1160    6.9140  -11.4840 C   0  0  0  0  0  0  0  0  0  0  0  0
    6.8240    5.0030  -10.9410 C   0  0  0  0  0  0  0  0  0  0  0  0
   10.9320    8.1810   -9.7400 C   0  0  0  0  0  0  0  0  0  0  0  0
   12.7200    8.4040   -1.7390 N   0  0  0  0  0  0  0  0  0  0  0  0
   10.9600    7.3850   -5.4350 C   0  0  0  0  0  0  0  0  0  0  0  0
   11.2860    8.8170   -5.0600 C   0  0  0  0  0  0  0  0  0  0  0  0
    9.8330    6.2660   -7.6170 C   0  0  0  0  0  0  0  0  0  0  0  0
    8.3870    5.2300  -11.0950 C   0  0  1  0  0  0  0  0  0  0  0  0
   11.8450    9.1130   -3.8820 C   0  0  0  0  0  0  0  0  0  0  0  0
    5.2270    5.2940  -14.4800 F   0  0  0  0  0  0  0  0  0  0  0  0
    7.0080    5.7010  -12.8880 C   0  0  2  0  0  0  0  0  0  0  0  0
   10.0720    6.8610  -10.3370 C   0  0  1  0  0  0  0  0  0  0  0  0
    8.4480    5.8810  -12.4440 N   0  0  0  0  0  0  0  0  0  0  0  0
  2  1  2  0
  3 16  1  0
  5 10  2  3
  6  9  1  0
  7 14  1  0
  7  2  2  0
  8 17  1  0
 10 22  1  0
 12  9  1  0
 13  7  1  0
 14 19  1  6
 15 20  1  0
 16 27  1  0
 19 11  2  0
 20 21  1  0
 20 13  2  0
 21 24  2  0
 22 15  3  0
 23 17  1  1
 23  5  1  0
 24  4  1  0
 24 14  1  0
 25  9  1  0
 26  9  1  6
 26 28  1  0
 26  8  1  0
 27  5  1  0
 27 18  1  1
 28  3  1  0
 28 23  1  0
M  END
>  <GenAI_Model>  (14) 
DiffSBDD

>  <Protein>  (14) 
generic_title2

>  <num_sample>  (14) 
50

$$$$
DiffSBDD_14
     RDKit          3D

 32 35  0  0  0  0  0  0  0  0999 V2000
    8.7490    7.7470  -11.7340 C   0  0  0  0  0  0  0  0  0  0  0  0
    6.6950    6.3350  -13.3940 O   0  0  0  0  0  0  0  0  0  0  0  0
    5.8180    4.9310  -14.8310 C   0  0  2  0  0  0  0  0  0  0  0  0
    6.2660    3.1050  -12.5270 O   0  0  0  0  0  0  0  0  0  0  0  0
    8.1420    5.5920   -7.9610 C   0  0  0  0  0  0  0  0  0  0  0  0
    9.9360    6.9630   -8.7270 C   0  0  0  0  0  0  0  0  0  0  0  0
   11.4560    7.1500  -10.5850 N   0  0  0  0  0  0  0  0  0  0  0  0
    9.2800    6.6280   -7.5750 C   0  0  2  0  0  0  0  0  0  0  0  0
   11.8050    8.8920   -4.2010 C   0  0  0  0  0  0  0  0  0  0  0  0
    7.2760    6.7870  -14.6280 C   0  0  0  0  0  0  0  0  0  0  0  0
   12.8640    7.5310   -1.6570 C   0  0  0  0  0  0  0  0  0  0  0  0
   11.3540    7.6360   -4.5110 C   0  0  0  0  0  0  0  0  0  0  0  0
   10.7110    8.8870   -6.2980 C   0  0  0  0  0  0  0  0  0  0  0  0
   10.4800    7.5370   -5.7030 C   0  0  1  0  0  0  0  0  0  0  0  0
    7.6200    4.6740  -11.2540 C   0  0  0  0  0  0  0  0  0  0  0  0
   12.8140    8.9860   -1.9870 C   0  0  0  0  0  0  0  0  0  0  0  0
    5.5780    2.9100  -13.7640 C   0  0  0  0  0  0  0  0  0  0  0  0
   10.3190    6.2230   -6.4630 C   0  0  2  0  0  0  0  0  0  0  0  0
    5.9140    5.3620  -13.3560 C   0  0  1  0  0  0  0  0  0  0  0  0
    6.4590    3.5330  -15.1700 C   0  0  0  0  0  0  0  0  0  0  0  0
   11.8390    6.6340  -12.8390 O   0  0  0  0  0  0  0  0  0  0  0  0
   11.0400    6.7240  -11.9470 C   0  0  0  0  0  0  0  0  0  0  0  0
   11.5360    9.5480   -5.3490 O   0  0  0  0  0  0  0  0  0  0  0  0
    6.4510    6.0120  -15.6540 C   0  0  0  0  0  0  0  0  0  0  0  0
   11.6320    6.5320   -3.6410 C   0  0  0  0  0  0  0  0  0  0  0  0
   12.2170    9.4840   -3.1100 C   0  0  0  0  0  0  0  0  0  0  0  0
   11.8350    5.7160   -6.6970 C   0  0  0  0  0  0  0  0  0  0  0  0
   10.6260    6.5480   -9.6410 C   0  0  0  0  0  0  0  0  0  0  0  0
    8.9460    5.1920  -11.9790 C   0  0  0  0  0  0  0  0  0  0  0  0
    9.4930    6.5250  -12.0230 C   0  0  1  0  0  0  0  0  0  0  0  0
   12.3630    6.6250   -2.4020 C   0  0  0  0  0  0  0  0  0  0  0  0
    6.3490    4.4030  -12.1160 C   0  0  1  0  0  0  0  0  0  0  0  0
  3 24  1  6
  3 19  1  0
  4 32  1  0
  6  8  1  0
  7 28  1  0
  8  5  1  6
  8 18  1  0
  9 26  1  0
 10  2  1  0
 12  9  2  0
 12 25  1  0
 14 13  1  6
 13 23  1  0
 14 18  1  0
 14 12  1  0
 16 11  2  0
 17  4  1  0
 18 27  1  6
 19  2  1  6
 19 32  1  0
 20  3  1  0
 20 17  1  0
 21 22  2  0
 22  7  1  0
 23  9  1  0
 24 10  1  0
 25 31  2  0
 26 16  1  0
 28  6  2  3
 29 15  1  0
 30 29  1  0
 30 22  1  0
 30  1  1  1
 31 11  1  0
 32 15  1  6
M  END
>  <GenAI_Model>  (15) 
DiffSBDD

>  <Protein>  (15) 
generic_title2

>  <num_sample>  (15) 
50

$$$$
DiffSBDD_15
     RDKit          3D

 21 22  0  0  0  0  0  0  0  0999 V2000
   12.0220    6.8980   -3.3150 C   0  0  0  0  0  0  0  0  0  0  0  0
   10.2720    6.5620   -6.0350 C   0  0  0  0  0  0  0  0  0  0  0  0
    8.4240    5.0000   -8.0760 Cl  0  0  0  0  0  0  0  0  0  0  0  0
   12.3860    6.2830   -2.0410 C   0  0  0  0  0  0  0  0  0  0  0  0
   13.1540    8.6000   -1.2300 C   0  0  0  0  0  0  0  0  0  0  0  0
   11.7320    8.5930   -4.8700 C   0  0  2  0  0  0  0  0  0  0  0  0
    9.8260    7.1860   -9.8110 N   0  0  0  0  0  0  0  0  0  0  0  0
   12.2160    8.3280   -3.4050 C   0  0  1  0  0  0  0  0  0  0  0  0
    8.3470    8.1390  -11.9510 O   0  0  0  0  0  0  0  0  0  0  0  0
    9.9260    6.1230   -7.6060 C   0  0  1  0  0  0  0  0  0  0  0  0
    9.3220    6.8200  -11.3460 P   0  0  0  0  0  0  0  0  0  0  0  0
   10.4510    8.3270  -10.0810 C   0  0  0  0  0  0  0  0  0  0  0  0
   11.3930    7.8770   -8.7800 C   0  0  0  0  0  0  0  0  0  0  0  0
   11.6420    6.7170   -6.2190 N   0  0  0  0  0  0  0  0  0  0  0  0
   11.0950   10.7150   -3.9690 O   0  0  0  0  0  0  0  0  0  0  0  0
   10.3780    6.7540  -12.2790 O   0  0  0  0  0  0  0  0  0  0  0  0
   11.9800    7.8390   -5.9480 C   0  0  0  0  0  0  0  0  0  0  0  0
   12.6760    7.1180   -0.7880 C   0  0  0  0  0  0  0  0  0  0  0  0
   11.1600    9.9430   -4.5710 C   0  0  0  0  0  0  0  0  0  0  0  0
   10.8680    6.8480   -8.4420 C   0  0  2  0  0  0  0  0  0  0  0  0
   12.2550    9.2760   -2.2630 C   0  0  0  0  0  0  0  0  0  0  0  0
  1  4  2  0
  4 18  1  0
  5 18  1  0
  6 17  1  6
  6 19  1  0
  7 20  1  0
  8  6  1  0
  8  1  1  0
  8 21  1  1
  9 11  1  0
 10  3  1  6
 10  2  1  0
 11  7  1  0
 12  7  1  0
 12 13  1  0
 20 13  1  1
 14  2  1  0
 14 17  1  0
 16 11  1  0
 19 15  2  0
 20 10  1  0
 21  5  1  0
M  END
>  <GenAI_Model>  (16) 
DiffSBDD

>  <Protein>  (16) 
generic_title2

>  <num_sample>  (16) 
50

$$$$
DiffSBDD_16
     RDKit          3D

 20 22  0  0  0  0  0  0  0  0999 V2000
   12.2720    6.4570   -1.6180 O   0  0  0  0  0  0  0  0  0  0  0  0
   12.4190    9.2460   -1.5100 O   0  0  0  0  0  0  0  0  0  0  0  0
    8.2330    7.1720  -12.0190 C   0  0  0  0  0  0  0  0  0  0  0  0
   11.1860    7.4720   -6.5720 C   0  0  1  0  0  0  0  0  0  0  0  0
    7.8500    4.8810  -11.0410 C   0  0  0  0  0  0  0  0  0  0  0  0
   11.9670    9.1610   -4.2610 S   0  0  0  0  0  0  0  0  0  0  0  0
    7.7450    7.8860  -12.9640 F   0  0  0  0  0  0  0  0  0  0  0  0
    8.8060    4.7620   -9.8970 C   0  0  0  0  0  0  0  0  0  0  0  0
   11.6420    7.6490   -4.9710 C   0  0  0  0  0  0  0  0  0  0  0  0
   12.2170    8.6050   -2.7340 C   0  0  0  0  0  0  0  0  0  0  0  0
    7.8460    5.9030  -11.8210 C   0  0  0  0  0  0  0  0  0  0  0  0
   11.4410    7.9570   -8.0820 C   0  0  0  0  0  0  0  0  0  0  0  0
    9.6670    5.7540   -7.7800 C   0  0  0  0  0  0  0  0  0  0  0  0
   10.1820    8.3300   -8.8300 C   0  0  0  0  0  0  0  0  0  0  0  0
   11.7500    6.6950   -4.0680 C   0  0  0  0  0  0  0  0  0  0  0  0
   12.0460    7.1680   -2.7600 C   0  0  1  0  0  0  0  0  0  0  0  0
    9.7940    7.3010   -9.8750 C   0  0  2  0  0  0  0  0  0  0  0  0
    9.1300    7.9480  -11.1320 C   0  0  0  0  0  0  0  0  0  0  0  0
    9.0300    6.1560   -9.2000 C   0  0  1  0  0  0  0  0  0  0  0  0
   10.8990    5.9530   -6.7650 C   0  0  0  0  0  0  0  0  0  0  0  0
  3 11  2  0
  3 18  1  0
  4  9  1  1
  5  8  1  0
  6 10  1  0
  7  3  1  0
  9  6  1  0
  9 15  2  0
 10  2  2  0
 11  5  1  0
 12  4  1  0
 13 20  1  0
 14 12  1  0
 15 16  1  0
 16 10  1  0
 16  1  1  6
 17 18  1  6
 17 19  1  0
 17 14  1  0
 19  8  1  6
 19 13  1  0
 20  4  1  0
M  END
>  <GenAI_Model>  (17) 
DiffSBDD

>  <Protein>  (17) 
generic_title2

>  <num_sample>  (17) 
50

$$$$
DiffSBDD_17
     RDKit          3D

 28 32  0  0  0  0  0  0  0  0999 V2000
    9.9630    5.6690   -7.9550 C   0  0  0  0  0  0  0  0  0  0  0  0
    9.0280    6.3770  -12.1490 N   0  0  0  0  0  0  0  0  0  0  0  0
    7.3390    4.0020  -14.0660 C   0  0  0  0  0  0  0  0  0  0  0  0
    7.4210    7.9510  -12.5740 O   0  0  0  0  0  0  0  0  0  0  0  0
    7.6840    6.2350  -12.9000 S   0  0  2  0  0  0  0  0  0  0  0  0
   11.3660    9.7260   -5.9550 C   0  0  0  0  0  0  0  0  0  0  0  0
   11.8700    7.3540   -2.4630 C   0  0  0  0  0  0  0  0  0  0  0  0
    8.7980    4.8610   -8.4850 C   0  0  0  0  0  0  0  0  0  0  0  0
    7.9100    4.6330  -13.0580 C   0  0  0  0  0  0  0  0  0  0  0  0
   11.0990    5.4250   -6.6050 C   0  0  0  0  0  0  0  0  0  0  0  0
   11.7010    6.6920   -3.6730 C   0  0  0  0  0  0  0  0  0  0  0  0
    6.3410    5.8030  -13.8850 O   0  0  0  0  0  0  0  0  0  0  0  0
   12.3860    9.1570   -1.1120 O   0  0  0  0  0  0  0  0  0  0  0  0
   11.4920    7.4370   -4.8540 C   0  0  0  0  0  0  0  0  0  0  0  0
   10.4880    6.7750   -8.7140 C   0  0  0  0  0  0  0  0  0  0  0  0
   11.9040    6.9160   -1.1690 C   0  0  0  0  0  0  0  0  0  0  0  0
    8.4030    5.1560   -9.8160 C   0  0  0  0  0  0  0  0  0  0  0  0
   11.0570    9.1040   -7.0690 C   0  0  0  0  0  0  0  0  0  0  0  0
   12.2130    8.0030   -0.2380 C   0  0  0  0  0  0  0  0  0  0  0  0
   11.5540    8.9520   -4.7640 C   0  0  0  0  0  0  0  0  0  0  0  0
    7.2690    1.9770  -13.3520 C   0  0  0  0  0  0  0  0  0  0  0  0
   10.0150    7.0000  -10.0460 C   0  0  0  0  0  0  0  0  0  0  0  0
   10.7800    7.7900   -7.4820 C   0  0  0  0  0  0  0  0  0  0  0  0
   11.0400    6.7630   -6.2350 C   0  0  0  0  0  0  0  0  0  0  0  0
    6.3610    3.0020  -14.1150 C   0  0  0  0  0  0  0  0  0  0  0  0
   12.0460    8.7970   -2.3610 C   0  0  0  0  0  0  0  0  0  0  0  0
    8.9920    6.3000  -10.6010 C   0  0  0  0  0  0  0  0  0  0  0  0
   11.8880    9.5540   -3.4980 C   0  0  0  0  0  0  0  0  0  0  0  0
  1 10  1  0
  2 27  1  0
  3  9  1  0
  5  4  2  0
  5  2  1  0
  6 20  2  0
  7 26  1  0
  7 16  1  0
  8  1  2  0
  9  5  1  0
 10 24  1  0
 11  7  2  0
 12  5  2  0
 13 19  1  0
 14 20  1  0
 14 11  1  0
 15  1  1  0
 15 23  1  0
 16 19  2  0
 17  8  1  0
 18  6  1  0
 20 28  1  0
 22 15  2  0
 23 18  2  0
 23 24  1  0
 24 14  2  0
 25  3  1  0
 25 21  1  0
 26 13  1  0
 27 22  1  0
 27 17  2  0
 28 26  2  0
M  END
>  <GenAI_Model>  (18) 
DiffSBDD

>  <Protein>  (18) 
generic_title2

>  <num_sample>  (18) 
50

$$$$
DiffSBDD_18
     RDKit          3D

 27 31  0  0  0  0  0  0  0  0999 V2000
   10.5210    7.0850  -11.4210 C   0  0  0  0  0  0  0  0  0  0  0  0
    6.1870    6.8050  -14.1010 C   0  0  0  0  0  0  0  0  0  0  0  0
    8.7970    5.6940   -8.9090 C   0  0  0  0  0  0  0  0  0  0  0  0
    8.9120    6.8930   -9.4420 C   0  0  2  0  0  0  0  0  0  0  0  0
    7.1440    3.2130  -13.6470 C   0  0  2  0  0  0  0  0  0  0  0  0
    8.3260    2.8060  -14.4860 C   0  0  0  0  0  0  0  0  0  0  0  0
    7.7340    6.9340  -13.8330 C   0  0  1  0  0  0  0  0  0  0  0  0
    8.9760    7.1050  -10.9560 C   0  0  1  0  0  0  0  0  0  0  0  0
    8.8090    5.7180   -6.4630 C   0  0  0  0  0  0  0  0  0  0  0  0
    5.8030    5.3490  -13.8570 O   0  0  0  0  0  0  0  0  0  0  0  0
    8.6010    6.3890  -14.8020 O   0  0  0  0  0  0  0  0  0  0  0  0
    8.9820    8.1790   -7.4660 C   0  0  0  0  0  0  0  0  0  0  0  0
    4.0930    6.0310  -14.7900 O   0  0  0  0  0  0  0  0  0  0  0  0
    7.5420    8.5740  -13.0910 S   0  0  0  0  0  0  0  0  0  0  0  0
    5.8480    2.4580  -13.9100 C   0  0  0  0  0  0  0  0  0  0  0  0
    8.0930    8.2840  -11.4930 C   0  0  0  0  0  0  0  0  0  0  0  0
    9.4360    8.2270   -8.9340 C   0  0  0  0  0  0  0  0  0  0  0  0
    9.2080    4.6130   -9.9320 O   0  0  0  0  0  0  0  0  0  0  0  0
    3.7100    3.9800  -13.8060 C   0  0  0  0  0  0  0  0  0  0  0  0
    8.9730    7.0890   -6.9200 O   0  0  0  0  0  0  0  0  0  0  0  0
    8.3700    4.9690   -7.6140 C   0  0  0  0  0  0  0  0  0  0  0  0
    8.5270    4.7050  -11.1370 C   0  0  2  0  0  0  0  0  0  0  0  0
    5.0010    4.9870  -14.4130 C   0  0  1  0  0  0  0  0  0  0  0  0
    9.2090    4.7040  -12.4410 C   0  0  0  0  0  0  0  0  0  0  0  0
    7.8780    5.7460  -12.5720 C   0  0  1  0  0  0  0  0  0  0  0  0
    6.8560    4.6410  -13.2010 C   0  0  2  0  0  0  0  0  0  0  0  0
    4.8490    3.3160  -14.7000 C   0  0  1  0  0  0  0  0  0  0  0  0
  3 21  1  0
  4 17  1  1
  4  3  1  0
  5  6  1  6
  5 26  1  0
  7  2  1  6
  7 14  1  0
  7 25  1  0
  8  1  1  1
  8  4  1  0
 11  7  1  0
 12 20  1  0
 14 16  1  0
 15  5  1  0
 16  8  1  0
 17 12  1  0
 18  3  1  0
 20  9  1  0
 21  9  1  0
 22 24  1  6
 22 18  1  0
 23 13  1  6
 23 10  1  0
 23 19  1  0
 25 24  1  6
 25 22  1  0
 26 10  1  6
 26 25  1  0
 27 23  1  0
 27 15  1  1
 27 19  1  0
M  END
>  <GenAI_Model>  (19) 
DiffSBDD

>  <Protein>  (19) 
generic_title2

>  <num_sample>  (19) 
50

$$$$
DiffSBDD_19
     RDKit          3D

 25 28  0  0  0  0  0  0  0  0999 V2000
   11.6670    6.5590   -5.9050 C   0  0  0  0  0  0  0  0  0  0  0  0
   11.3840    7.8670   -5.2360 C   0  0  1  0  0  0  0  0  0  0  0  0
    6.9560    5.8140  -12.8490 C   0  0  0  0  0  0  0  0  0  0  0  0
    9.4720    7.6110  -11.0460 C   0  0  0  0  0  0  0  0  0  0  0  0
    7.4290    5.1140  -14.5380 C   0  0  1  0  0  0  0  0  0  0  0  0
    9.8160    6.5810   -9.9980 C   0  0  1  0  0  0  0  0  0  0  0  0
    7.7910    6.2030  -12.0690 N   0  0  0  0  0  0  0  0  0  0  0  0
   11.8300    7.8780   -3.8270 N   0  0  0  0  0  0  0  0  0  0  0  0
    8.5720    7.3430  -11.9310 C   0  0  0  0  0  0  0  0  0  0  0  0
    9.4450    7.1960   -8.6720 O   0  0  0  0  0  0  0  0  0  0  0  0
   11.3200    9.1810   -6.1140 C   0  0  0  0  0  0  0  0  0  0  0  0
    8.2370    5.1060  -11.4150 N   0  0  0  0  0  0  0  0  0  0  0  0
   12.3550    6.7970   -1.6000 S   0  0  0  0  0  0  0  0  0  0  0  0
   12.2020    8.9830   -3.0310 C   0  0  0  0  0  0  0  0  0  0  0  0
   10.7730    8.9310   -7.5320 C   0  0  0  0  0  0  0  0  0  0  0  0
    8.1120    3.9740  -12.0450 C   0  0  0  0  0  0  0  0  0  0  0  0
   11.8140    6.5680   -3.1610 C   0  0  0  0  0  0  0  0  0  0  0  0
    5.5380    7.0450  -14.5360 O   0  0  0  0  0  0  0  0  0  0  0  0
    7.5260    3.6440  -13.5570 S   0  0  0  0  0  0  0  0  0  0  0  0
    8.8060    5.2750  -10.0730 C   0  0  0  0  0  0  0  0  0  0  0  0
   12.3640    8.4530   -1.7270 C   0  0  0  0  0  0  0  0  0  0  0  0
   10.9140    6.2360   -7.2220 C   0  0  0  0  0  0  0  0  0  0  0  0
    6.4130    6.2540  -16.4750 C   0  0  0  0  0  0  0  0  0  0  0  0
    6.7240    6.4170  -14.9520 C   0  0  2  0  0  0  0  0  0  0  0  0
   10.7150    7.5220   -8.0920 C   0  0  1  0  0  0  0  0  0  0  0  0
  1  2  1  0
  2 11  1  0
  2  8  1  1
  3  7  1  0
  4  6  1  0
  5 24  1  0
  5 19  1  0
  5  3  1  1
  6 10  1  1
  7  9  1  0
  7 12  1  0
  8 17  1  0
  8 14  1  0
  9  4  2  0
 12 16  1  0
 12 20  1  0
 14 21  2  0
 15 11  1  0
 17 13  1  0
 19 16  1  0
 20  6  1  0
 21 13  1  0
 22  1  1  0
 24 23  1  6
 24 18  1  0
 25 10  1  1
 25 15  1  0
 25 22  1  0
M  END
>  <GenAI_Model>  (20) 
DiffSBDD

>  <Protein>  (20) 
generic_title2

>  <num_sample>  (20) 
50

$$$$
DiffSBDD_20
     RDKit          3D

 31 33  0  0  0  0  0  0  0  0999 V2000
   12.2700    9.1010   -2.2550 C   0  0  0  0  0  0  0  0  0  0  0  0
   11.3950    7.5070  -10.1800 C   0  0  0  0  0  0  0  0  0  0  0  0
   10.8710    7.0050   -5.7210 C   0  0  0  0  0  0  0  0  0  0  0  0
   12.1980    9.4960   -3.4800 C   0  0  0  0  0  0  0  0  0  0  0  0
   12.7160    8.0020   -1.6930 C   0  0  1  0  0  0  0  0  0  0  0  0
    8.1160    6.0850  -14.3670 C   0  0  0  0  0  0  0  0  0  0  0  0
    7.1410    4.9880  -11.5040 C   0  0  1  0  0  0  0  0  0  0  0  0
   13.3870    8.0170   -0.5700 F   0  0  0  0  0  0  0  0  0  0  0  0
    8.5930    5.2260   -9.4340 C   0  0  0  0  0  0  0  0  0  0  0  0
    6.9640    4.1450  -15.0920 O   0  0  0  0  0  0  0  0  0  0  0  0
   10.0050    6.3960   -7.0430 C   0  0  0  0  0  0  0  0  0  0  0  0
    8.3270    4.6550  -10.7080 C   0  0  2  0  0  0  0  0  0  0  0  0
    5.4860    7.1630  -13.5690 C   0  0  0  0  0  0  0  0  0  0  0  0
   11.8590    8.8870   -4.5180 C   0  0  0  0  0  0  0  0  0  0  0  0
   11.5040    7.3440   -4.4890 C   0  0  0  0  0  0  0  0  0  0  0  0
   11.8090    6.4980   -3.4690 C   0  0  0  0  0  0  0  0  0  0  0  0
    6.9290    4.2710  -12.7140 C   0  0  2  0  0  0  0  0  0  0  0  0
   11.0890    8.5380   -8.0800 C   0  0  0  0  0  0  0  0  0  0  0  0
    9.3600    6.4510   -7.5380 N   0  0  0  0  0  0  0  0  0  0  0  0
   12.0530    8.5730   -9.2440 C   0  0  0  0  0  0  0  0  0  0  0  0
    5.2410    6.3480  -15.5520 C   0  0  0  0  0  0  0  0  0  0  0  0
    9.1950    6.6020   -9.0560 C   0  0  1  0  0  0  0  0  0  0  0  0
    9.5450    4.6840  -11.4700 O   0  0  0  0  0  0  0  0  0  0  0  0
    6.9470    5.1760  -14.0480 C   0  0  1  0  0  0  0  0  0  0  0  0
   11.2320    9.6260   -5.8970 S   0  0  0  0  0  0  0  0  0  0  0  0
   12.3850    6.7050   -2.2220 C   0  0  0  0  0  0  0  0  0  0  0  0
    5.5870    5.7190  -14.1990 C   0  0  0  0  0  0  0  0  0  0  0  0
   10.0680    7.1600  -10.0700 C   0  0  0  0  0  0  0  0  0  0  0  0
   11.1800    8.0110   -6.8910 C   0  0  1  0  0  0  0  0  0  0  0  0
    6.0200    3.4170  -13.0520 O   0  0  0  0  0  0  0  0  0  0  0  0
    5.8980    4.8290  -10.6560 N   0  0  0  0  0  0  0  0  0  0  0  0
  1  5  1  0
  2 28  1  0
  2 20  1  0
  3 11  1  0
  3 15  1  0
  4  1  2  0
  5  8  1  1
  7 12  1  0
  7 31  1  1
 10 24  1  0
 12 23  1  6
 12  9  1  0
 14 15  2  0
 14  4  1  0
 15 16  1  0
 16 26  2  0
 17 30  1  1
 17  7  1  0
 19 11  1  0
 20 18  1  0
 21 27  1  0
 22  9  1  6
 22 19  1  0
 24  6  1  1
 24 17  1  0
 25 14  1  0
 26  5  1  0
 27 24  1  0
 27 13  1  0
 28 22  1  0
 29 18  1  6
 29 25  1  0
 29  3  1  0
M  END
>  <GenAI_Model>  (21) 
DiffSBDD

>  <Protein>  (21) 
generic_title2

>  <num_sample>  (21) 
50

$$$$
DiffSBDD_21
     RDKit          3D

 30 34  0  0  0  0  0  0  0  0999 V2000
   12.5460    7.8160   -1.2340 C   0  0  0  0  0  0  0  0  0  0  0  0
   12.2020    9.7880   -1.9800 N   0  0  0  0  0  0  0  0  0  0  0  0
   10.2020    7.4210  -10.2160 C   0  0  1  0  0  0  0  0  0  0  0  0
    8.6940    5.2880   -7.6830 C   0  0  0  0  0  0  0  0  0  0  0  0
   12.8220    6.6300   -0.3120 C   0  0  0  0  0  0  0  0  0  0  0  0
    9.5530    6.2820   -7.0690 C   0  0  2  0  0  0  0  0  0  0  0  0
    8.7460    6.6740  -12.0730 C   0  0  1  0  0  0  0  0  0  0  0  0
    8.9560    4.2990  -11.3410 C   0  0  0  0  0  0  0  0  0  0  0  0
    9.2830    8.3930   -9.6890 O   0  0  0  0  0  0  0  0  0  0  0  0
    8.0040    7.9900  -12.3930 C   0  0  0  0  0  0  0  0  0  0  0  0
   11.6990    9.2680   -4.3520 C   0  0  0  0  0  0  0  0  0  0  0  0
   12.1550    7.6860   -2.5900 C   0  0  0  0  0  0  0  0  0  0  0  0
   10.0200    6.1590   -9.3570 C   0  0  1  0  0  0  0  0  0  0  0  0
   10.0740    6.8530  -11.9780 C   0  0  0  0  0  0  0  0  0  0  0  0
   10.6550    6.7330   -7.9520 C   0  0  2  0  0  0  0  0  0  0  0  0
   11.9380    6.6020   -3.4520 C   0  0  0  0  0  0  0  0  0  0  0  0
   11.6560    6.8830   -4.7830 C   0  0  0  0  0  0  0  0  0  0  0  0
    8.1270    5.4810  -11.8010 C   0  0  2  0  0  0  0  0  0  0  0  0
   11.5700    5.7520   -5.6480 O   0  0  0  0  0  0  0  0  0  0  0  0
    8.9670    5.3380   -9.1760 C   0  0  1  0  0  0  0  0  0  0  0  0
    8.5460    4.2820   -9.8960 C   0  0  0  0  0  0  0  0  0  0  0  0
   10.8910    5.6610   -6.8900 C   0  0  1  0  0  0  0  0  0  0  0  0
   11.9880    8.9950   -2.9930 C   0  0  0  0  0  0  0  0  0  0  0  0
    7.2030    5.5480  -13.7030 C   0  0  1  0  0  0  0  0  0  0  0  0
   11.4970    8.2490   -5.2440 C   0  0  0  0  0  0  0  0  0  0  0  0
    6.4210    6.2410  -14.5510 C   0  0  0  0  0  0  0  0  0  0  0  0
    6.8320    5.1720  -12.3730 C   0  0  0  0  0  0  0  0  0  0  0  0
    8.1850    4.7770  -14.4180 C   0  0  0  0  0  0  0  0  0  0  0  0
    5.5530    6.6170  -15.3020 N   0  0  0  0  0  0  0  0  0  0  0  0
   12.5560    9.1070   -0.9520 N   0  0  0  0  0  0  0  0  0  0  0  0
  1 30  1  0
  1  5  1  0
  2 30  1  0
  3  9  1  1
 13  3  1  6
  6  4  1  6
  6 22  1  0
  7 10  1  1
  7 14  1  0
  7 18  1  0
  8 21  1  0
 11 23  1  0
 12  1  2  0
 13 20  1  0
 13 15  1  0
 14  3  1  0
 15  6  1  0
 15 22  1  1
 16 12  1  0
 17 16  2  0
 18  8  1  0
 19 17  1  0
 20  4  1  1
 21 20  1  0
 22 19  1  1
 23 12  1  0
 23  2  2  0
 24 27  1  0
 25 17  1  0
 25 11  2  0
 26 24  1  0
 18 27  1  6
 24 28  1  6
 29 26  3  0
M  END
>  <GenAI_Model>  (22) 
DiffSBDD

>  <Protein>  (22) 
generic_title2

>  <num_sample>  (22) 
50

$$$$
DiffSBDD_22
     RDKit          3D

 30 34  0  0  0  0  0  0  0  0999 V2000
    9.7690    6.8150   -9.8660 C   0  0  0  0  0  0  0  0  0  0  0  0
    9.7840    6.6720   -8.7700 C   0  0  1  0  0  0  0  0  0  0  0  0
    8.9240    5.6730  -10.6980 C   0  0  2  0  0  0  0  0  0  0  0  0
   11.7420    7.5040   -4.6840 C   0  0  1  0  0  0  0  0  0  0  0  0
    7.5100    5.9580  -12.5430 C   0  0  2  0  0  0  0  0  0  0  0  0
    6.3530    6.7050  -13.2470 C   0  0  0  0  0  0  0  0  0  0  0  0
    8.4620    6.5620  -11.8110 N   0  0  0  0  0  0  0  0  0  0  0  0
    8.0690    4.7000   -9.9510 C   0  0  0  0  0  0  0  0  0  0  0  0
    8.6080    8.6310  -11.3540 O   0  0  0  0  0  0  0  0  0  0  0  0
    8.7430    5.9060   -7.8600 C   0  0  0  0  0  0  0  0  0  0  0  0
    8.1260    5.1970  -13.7510 C   0  0  1  0  0  0  0  0  0  0  0  0
   11.6740    9.3490   -7.4400 C   0  0  0  0  0  0  0  0  0  0  0  0
   10.9370    7.0860   -7.5390 C   0  0  2  0  0  0  0  0  0  0  0  0
   11.4530    5.9850   -6.6980 C   0  0  0  0  0  0  0  0  0  0  0  0
    5.0760    6.7480  -15.8130 Cl  0  0  0  0  0  0  0  0  0  0  0  0
   12.8040    9.0070   -1.4450 C   0  0  0  0  0  0  0  0  0  0  0  0
    8.6230    4.5110   -8.5650 C   0  0  0  0  0  0  0  0  0  0  0  0
   12.8630    7.9120   -0.6080 C   0  0  0  0  0  0  0  0  0  0  0  0
   12.3580    8.8990   -2.7450 C   0  0  0  0  0  0  0  0  0  0  0  0
    7.3970    4.4550  -12.6590 C   0  0  0  0  0  0  0  0  0  0  0  0
   12.0940    6.5530   -2.5030 C   0  0  0  0  0  0  0  0  0  0  0  0
    8.9870    7.7480  -11.9860 C   0  0  0  0  0  0  0  0  0  0  0  0
   11.7650    9.4720   -8.3750 F   0  0  0  0  0  0  0  0  0  0  0  0
    6.1910    6.2200  -14.6620 C   0  0  0  0  0  0  0  0  0  0  0  0
   11.7190    8.4970   -5.5810 N   0  0  0  0  0  0  0  0  0  0  0  0
    7.3080    5.2940  -15.0070 N   0  0  0  0  0  0  0  0  0  0  0  0
   12.0070    7.6440   -3.2950 C   0  0  0  0  0  0  0  0  0  0  0  0
   12.4740    6.6560   -1.1340 C   0  0  0  0  0  0  0  0  0  0  0  0
   11.4290    8.1960   -6.9140 C   0  0  0  0  0  0  0  0  0  0  0  0
   11.3690    6.2580   -5.3010 C   0  0  0  0  0  0  0  0  0  0  0  0
  2  1  1  6
  2 10  1  0
  2 13  1  0
  3  7  1  6
  3  8  1  0
  3  1  1  0
  4 27  1  1
  5  7  1  1
  6  5  1  0
  8 17  1  0
 11 20  1  1
 11  5  1  0
 12 29  1  0
 13 29  1  0
 13 14  1  1
 14 30  1  0
 15 24  1  0
 16 18  2  0
 17 10  1  0
 19 16  1  0
 20  5  1  0
 21 28  2  0
 22  7  1  0
 22  9  2  0
 23 12  1  0
 24  6  1  0
 25  4  1  0
 26 24  2  0
 26 11  1  0
 27 19  2  0
 27 21  1  0
 28 18  1  0
 29 25  2  0
 30  4  1  0
M  END
>  <GenAI_Model>  (23) 
DiffSBDD

>  <Protein>  (23) 
generic_title2

>  <num_sample>  (23) 
50

$$$$
DiffSBDD_23
     RDKit          3D

 30 33  0  0  0  0  0  0  0  0999 V2000
    7.0040    6.0280  -12.6650 C   0  0  0  0  0  0  0  0  0  0  0  0
    7.0800    1.7140  -13.3140 C   0  0  0  0  0  0  0  0  0  0  0  0
   11.9920    9.1860   -4.9140 F   0  0  0  0  0  0  0  0  0  0  0  0
   10.8210    6.9760   -6.0930 S   0  0  1  0  0  0  0  0  0  0  0  0
   11.9580    8.2350   -4.0970 C   0  0  1  0  0  0  0  0  0  0  0  0
   11.4640    7.3280   -7.6870 C   0  0  0  0  0  0  0  0  0  0  0  0
    9.8310    6.4130   -1.2310 C   0  0  0  0  0  0  0  0  0  0  0  0
   11.0180    6.0060   -3.4500 C   0  0  0  0  0  0  0  0  0  0  0  0
    8.9560    7.5290   -7.7910 C   0  0  0  0  0  0  0  0  0  0  0  0
    8.8860    7.3800  -10.2650 O   0  0  0  0  0  0  0  0  0  0  0  0
   10.3710    6.2010  -13.1670 O   0  0  0  0  0  0  0  0  0  0  0  0
    5.7970    5.2590  -12.7250 C   0  0  0  0  0  0  0  0  0  0  0  0
   10.8940    7.5020   -8.9060 C   0  0  0  0  0  0  0  0  0  0  0  0
    9.4630    6.3510   -7.0130 C   0  0  0  0  0  0  0  0  0  0  0  0
    8.1260    5.3250  -12.5180 C   0  0  0  0  0  0  0  0  0  0  0  0
   12.1060    7.4840   -1.7330 C   0  0  2  0  0  0  0  0  0  0  0  0
   11.8390    6.7380   -4.5800 C   0  0  1  0  0  0  0  0  0  0  0  0
    7.0070    7.5760  -12.9080 F   0  0  0  0  0  0  0  0  0  0  0  0
    5.8500    3.8790  -12.8370 C   0  0  0  0  0  0  0  0  0  0  0  0
    9.5330    7.5980   -9.0000 C   0  0  0  0  0  0  0  0  0  0  0  0
   11.3740    7.5440  -10.6270 S   0  0  0  0  0  0  0  0  0  0  0  0
    7.0610    3.1820  -12.9590 C   0  0  0  0  0  0  0  0  0  0  0  0
    9.7310    7.5340  -11.4240 C   0  0  1  0  0  0  0  0  0  0  0  0
   11.9450    8.7010   -0.8080 C   0  0  0  0  0  0  0  0  0  0  0  0
   12.8210    7.9170   -2.9700 C   0  0  2  0  0  0  0  0  0  0  0  0
    9.4610    6.2370  -12.0890 C   0  0  2  0  0  0  0  0  0  0  0  0
   13.8380    8.9160   -2.8710 O   0  0  0  0  0  0  0  0  0  0  0  0
   10.7660    6.9950   -2.2960 C   0  0  2  0  0  0  0  0  0  0  0  0
    9.0240    6.0750   -0.4450 C   0  0  0  0  0  0  0  0  0  0  0  0
    8.2520    3.9030  -12.8160 C   0  0  0  0  0  0  0  0  0  0  0  0
  1 15  2  0
  2 22  1  0
  4  6  1  6
  4 17  1  0
  5  3  1  6
  5 25  1  0
  7 29  3  0
  8 28  1  0
  9 14  1  0
 10 20  1  0
 12  1  1  0
 13  6  1  0
 14  4  1  0
 15 26  1  0
 16 24  1  1
 17  5  1  0
 17  8  1  1
 18  1  1  0
 19 12  2  0
 20 13  2  0
 20  9  1  0
 21 13  1  0
 22 19  1  0
 22 30  2  0
 23 26  1  0
 23 21  1  0
 23 10  1  1
 25 27  1  1
 25 16  1  0
 26 11  1  6
 28 16  1  0
 28  7  1  1
 30 15  1  0
M  END
>  <GenAI_Model>  (24) 
DiffSBDD

>  <Protein>  (24) 
generic_title2

>  <num_sample>  (24) 
50

$$$$
DiffSBDD_24
     RDKit          3D

 40 44  0  0  0  0  0  0  0  0999 V2000
    7.0610    6.1720  -16.9920 C   0  0  2  0  0  0  0  0  0  0  0  0
   11.6700    7.3170  -11.8380 C   0  0  0  0  0  0  0  0  0  0  0  0
    6.0990    7.4040  -16.4870 C   0  0  0  0  0  0  0  0  0  0  0  0
   11.4140    6.8310   -2.8030 C   0  0  0  0  0  0  0  0  0  0  0  0
    6.9770    3.7010  -12.7940 C   0  0  0  0  0  0  0  0  0  0  0  0
   13.1680    8.9290   -2.5290 C   0  0  0  0  0  0  0  0  0  0  0  0
   12.8110    8.1080   -1.4660 C   0  0  0  0  0  0  0  0  0  0  0  0
   11.9000    7.8120   -6.1540 O   0  0  0  0  0  0  0  0  0  0  0  0
   10.5410    7.8870   -8.1800 C   0  0  0  0  0  0  0  0  0  0  0  0
    9.2420    6.4770   -6.7040 C   0  0  0  0  0  0  0  0  0  0  0  0
    9.5680    6.2750   -0.8700 C   0  0  0  0  0  0  0  0  0  0  0  0
   10.5450    7.6470   -9.5380 C   0  0  0  0  0  0  0  0  0  0  0  0
   10.3240    6.8490  -12.3310 C   0  0  0  0  0  0  0  0  0  0  0  0
    8.3190    6.4460  -10.8290 N   0  0  0  0  0  0  0  0  0  0  0  0
   13.4480    8.0770   -0.3170 O   0  0  0  0  0  0  0  0  0  0  0  0
    6.8030    6.1270  -18.2260 O   0  0  0  0  0  0  0  0  0  0  0  0
    6.9380    5.0290  -15.9080 C   0  0  0  0  0  0  0  0  0  0  0  0
   11.7080    7.9000   -7.5710 C   0  0  0  0  0  0  0  0  0  0  0  0
   12.5260    8.7250   -3.6890 C   0  0  0  0  0  0  0  0  0  0  0  0
    9.2340    8.0230   -7.3650 C   0  0  0  0  0  0  0  0  0  0  0  0
    8.3020    5.1650  -14.0660 O   0  0  0  0  0  0  0  0  0  0  0  0
   12.7670    7.9840   -9.6790 C   0  0  0  0  0  0  0  0  0  0  0  0
   11.7260    7.6340   -3.8740 C   0  0  0  0  0  0  0  0  0  0  0  0
   14.3490    9.0360    0.2610 C   0  0  0  0  0  0  0  0  0  0  0  0
    7.9830    5.0700  -10.8050 C   0  0  1  0  0  0  0  0  0  0  0  0
   12.9070    8.1320   -8.3460 C   0  0  0  0  0  0  0  0  0  0  0  0
    8.0210    8.0870  -12.4400 O   0  0  0  0  0  0  0  0  0  0  0  0
    8.8060    7.0890  -11.8410 C   0  0  0  0  0  0  0  0  0  0  0  0
    4.6770    7.0440  -16.8200 C   0  0  0  0  0  0  0  0  0  0  0  0
   11.0600    7.3930   -5.2550 C   0  0  2  0  0  0  0  0  0  0  0  0
   11.1670    6.6680   -0.6280 O   0  0  0  0  0  0  0  0  0  0  0  0
    7.5310    4.8310   -9.4640 O   0  0  0  0  0  0  0  0  0  0  0  0
    6.8760    4.9940  -11.7970 C   0  0  1  0  0  0  0  0  0  0  0  0
    5.6360    3.3220  -13.1940 O   0  0  0  0  0  0  0  0  0  0  0  0
    7.8930    2.7170  -12.6530 O   0  0  0  0  0  0  0  0  0  0  0  0
   11.6360    7.6350  -10.3150 C   0  0  0  0  0  0  0  0  0  0  0  0
   10.2590    6.2700   -5.5470 C   0  0  0  0  0  0  0  0  0  0  0  0
    6.9510    5.7230  -14.4670 C   0  0  2  0  0  0  0  0  0  0  0  0
   11.7870    7.1560   -1.5710 C   0  0  0  0  0  0  0  0  0  0  0  0
    7.2560    5.1420  -13.0710 C   0  0  2  0  0  0  0  0  0  0  0  0
  1 16  1  6
  1  3  1  0
  1 17  1  0
  2 36  1  0
  4 39  1  0
  5 35  1  0
 33  5  1  6
  6  7  1  0
  7 15  1  0
  8 30  1  0
  9 18  2  0
  9 20  1  0
 10 37  1  0
 11 31  1  0
 12  9  1  0
 13 28  1  0
 13  2  1  0
 14 25  1  0
 15 24  1  0
 18  8  1  0
 19  6  2  0
 20 10  1  0
 22 26  2  0
 23 19  1  0
 23  4  2  0
 25 32  1  1
 26 18  1  0
 27 28  2  0
 28 14  1  0
 29  3  1  0
 30 23  1  1
 33 25  1  0
 34  5  1  0
 36 22  1  0
 36 12  2  0
 37 30  1  0
 38 17  1  6
 38 21  1  0
 38 40  1  0
 39  7  2  0
 39 31  1  0
 40 21  1  1
 40  5  1  0
 40 33  1  0
M  END
>  <GenAI_Model>  (25) 
DiffSBDD

>  <Protein>  (25) 
generic_title2

>  <num_sample>  (25) 
50

$$$$
DiffSBDD_25
     RDKit          3D

 18 20  0  0  0  0  0  0  0  0999 V2000
   11.7880    8.5860   -5.2760 C   0  0  0  0  0  0  0  0  0  0  0  0
   12.8910    8.6700   -1.8300 C   0  0  0  0  0  0  0  0  0  0  0  0
   12.6440    7.4370   -1.3370 C   0  0  0  0  0  0  0  0  0  0  0  0
   11.9820    8.0500   -3.8590 C   0  0  0  0  0  0  0  0  0  0  0  0
    8.5880    5.9910   -7.9840 N   0  0  0  0  0  0  0  0  0  0  0  0
   12.1070    8.8310   -7.5480 N   0  0  0  0  0  0  0  0  0  0  0  0
   11.7950    6.8530   -3.4270 C   0  0  0  0  0  0  0  0  0  0  0  0
   11.0630    9.8390   -5.4260 C   0  0  0  0  0  0  0  0  0  0  0  0
   10.7800    6.0570   -6.7440 C   0  0  0  0  0  0  0  0  0  0  0  0
   10.0360    6.3490   -8.0670 C   0  0  2  0  0  0  0  0  0  0  0  0
   11.3720    8.6390   -8.7770 C   0  0  1  0  0  0  0  0  0  0  0  0
   11.4830    9.3730   -6.5590 C   0  0  2  0  0  0  0  0  0  0  0  0
   12.0520    6.5470   -2.1410 C   0  0  0  0  0  0  0  0  0  0  0  0
   10.7480    7.3080  -10.6090 C   0  0  0  0  0  0  0  0  0  0  0  0
    9.5700    7.7530   -9.8270 C   0  0  0  0  0  0  0  0  0  0  0  0
   11.9990    7.8980   -9.8390 C   0  0  0  0  0  0  0  0  0  0  0  0
   12.5980    9.0250   -3.1510 C   0  0  0  0  0  0  0  0  0  0  0  0
   10.1710    7.8430   -8.4040 C   0  0  1  0  0  0  0  0  0  0  0  0
  1  4  1  0
  2  3  2  0
  4  7  1  0
  4 17  2  0
  7 13  2  0
  8  1  1  0
 10  5  1  0
 10  9  1  1
 11 18  1  0
 11  6  1  1
 12  6  1  1
 12  8  1  0
 12  1  1  0
 13  3  1  0
 14 16  1  0
 14 15  1  0
 18 15  1  6
 16 11  1  0
 17  2  1  0
 18 10  1  0
M  END
>  <GenAI_Model>  (26) 
DiffSBDD

>  <Protein>  (26) 
generic_title2

>  <num_sample>  (26) 
50

$$$$
DiffSBDD_26
     RDKit          3D

 37 41  0  0  0  0  0  0  0  0999 V2000
    6.9930    3.0230  -13.8820 C   0  0  0  0  0  0  0  0  0  0  0  0
   13.3780    6.9640   -0.4610 C   0  0  0  0  0  0  0  0  0  0  0  0
    8.8790    4.3690  -12.0870 O   0  0  0  0  0  0  0  0  0  0  0  0
    7.3860    3.1250  -15.2200 C   0  0  0  0  0  0  0  0  0  0  0  0
   10.1970    6.9180   -7.5340 N   0  0  0  0  0  0  0  0  0  0  0  0
    7.2180    1.7620  -12.9150 C   0  0  0  0  0  0  0  0  0  0  0  0
   13.9800    6.5490    0.5510 F   0  0  0  0  0  0  0  0  0  0  0  0
   11.4110    6.5060   -3.7690 C   0  0  0  0  0  0  0  0  0  0  0  0
   10.3300    7.2570  -10.0090 C   0  0  1  0  0  0  0  0  0  0  0  0
    8.9380    5.4510   -9.0660 C   0  0  0  0  0  0  0  0  0  0  0  0
   12.7200    6.2000   -1.4190 C   0  0  0  0  0  0  0  0  0  0  0  0
   11.7490    9.1360   -5.1240 C   0  0  0  0  0  0  0  0  0  0  0  0
    9.8770    5.4700   -7.8140 C   0  0  0  0  0  0  0  0  0  0  0  0
    7.3230    5.4430  -13.3760 C   0  0  1  0  0  0  0  0  0  0  0  0
    7.9760    7.9910  -13.0280 C   0  0  0  0  0  0  0  0  0  0  0  0
    5.2790    5.8440  -14.2180 C   0  0  0  0  0  0  0  0  0  0  0  0
    7.9480    5.0690  -12.1810 O   0  0  0  0  0  0  0  0  0  0  0  0
    5.3040    5.2750  -11.8200 C   0  0  0  0  0  0  0  0  0  0  0  0
   10.7680    6.9570  -12.4300 C   0  0  0  0  0  0  0  0  0  0  0  0
   11.3060    8.6950   -6.3220 C   0  0  0  0  0  0  0  0  0  0  0  0
    9.4040    6.8450  -11.7330 C   0  0  2  0  0  0  0  0  0  0  0  0
    8.2860    7.6430  -11.7700 C   0  0  0  0  0  0  0  0  0  0  0  0
    5.8940    5.0890  -13.2130 C   0  0  2  0  0  0  0  0  0  0  0  0
   12.7250    8.8470   -1.6330 C   0  0  0  0  0  0  0  0  0  0  0  0
   10.7970    6.5210   -5.2760 C   0  0  0  0  0  0  0  0  0  0  0  0
    9.5170    6.1280  -10.1640 C   0  0  1  0  0  0  0  0  0  0  0  0
    5.7430    3.6420  -13.4620 O   0  0  0  0  0  0  0  0  0  0  0  0
   10.7150    7.2480   -6.2270 C   0  0  2  0  0  0  0  0  0  0  0  0
   12.3690    8.0330   -2.8480 C   0  0  0  0  0  0  0  0  0  0  0  0
    9.9860    8.4790   -9.9230 C   0  0  0  0  0  0  0  0  0  0  0  0
    9.7110    7.6950   -8.7230 C   0  0  2  0  0  0  0  0  0  0  0  0
   12.3580    6.6980   -2.5450 C   0  0  0  0  0  0  0  0  0  0  0  0
   12.7460   10.0700   -1.8250 O   0  0  0  0  0  0  0  0  0  0  0  0
    5.8450    7.1820  -13.9630 C   0  0  0  0  0  0  0  0  0  0  0  0
   12.0170    8.8860   -4.1740 C   0  0  0  0  0  0  0  0  0  0  0  0
   13.3820    8.2490   -0.6370 O   0  0  0  0  0  0  0  0  0  0  0  0
    7.2800    6.8410  -13.8760 N   0  0  0  0  0  0  0  0  0  0  0  0
  1 27  1  0
  1  6  1  0
  2  7  1  0
  4  1  1  0
  5 13  1  0
 28  5  1  6
  8 32  2  0
  9 30  1  6
  9 31  1  0
 10 13  1  0
 11  2  2  0
 12 35  2  0
 14 23  1  0
 14 17  1  1
 15 22  1  0
 16 34  1  0
 16 23  1  0
 17  3  1  0
 20 12  1  0
 21 19  1  1
 22 21  1  0
 23 18  1  1
 24 36  1  0
 25  8  2  0
 26 21  1  0
 26  9  1  0
 26 10  1  1
 27 23  1  0
 28 20  1  0
 28 25  1  0
 29 32  1  0
 29 24  1  0
 31 30  1  1
 31  5  1  0
 32 11  1  0
 33 24  2  0
 34 37  1  0
 35 29  2  0
 36  2  1  0
 37 14  1  0
 37 15  1  0
M  END
>  <GenAI_Model>  (27) 
DiffSBDD

>  <Protein>  (27) 
generic_title2

>  <num_sample>  (27) 
50

$$$$
DiffSBDD_27
     RDKit          3D

 24 24  0  0  0  0  0  0  0  0999 V2000
   12.9030    8.4040   -0.5360 F   0  0  0  0  0  0  0  0  0  0  0  0
   11.4900    7.3370   -5.7970 C   0  0  0  0  0  0  0  0  0  0  0  0
    6.1990    3.6580  -11.7430 C   0  0  0  0  0  0  0  0  0  0  0  0
   11.8930    6.4420   -3.3980 C   0  0  0  0  0  0  0  0  0  0  0  0
    8.4050    6.2610  -12.7050 C   0  0  0  0  0  0  0  0  0  0  0  0
    7.9880    8.7350  -12.4570 O   0  0  0  0  0  0  0  0  0  0  0  0
   10.3860    8.4640  -10.5350 O   0  0  0  0  0  0  0  0  0  0  0  0
    7.8770    3.9950  -13.9230 C   0  0  0  0  0  0  0  0  0  0  0  0
    9.6210    7.0150   -8.4550 C   0  0  2  0  0  0  0  0  0  0  0  0
    8.8530    6.2520   -7.5420 O   0  0  0  0  0  0  0  0  0  0  0  0
   12.1110   10.3950   -2.2760 F   0  0  0  0  0  0  0  0  0  0  0  0
   11.8590    8.7630   -3.9290 C   0  0  0  0  0  0  0  0  0  0  0  0
    7.8310    3.9050  -12.4200 C   0  0  0  0  0  0  0  0  0  0  0  0
    8.9740    5.2330  -10.5340 C   0  0  0  0  0  0  0  0  0  0  0  0
    9.1260    6.6170   -9.8180 C   0  0  2  0  0  0  0  0  0  0  0  0
   11.0870    7.1200   -8.3880 C   0  0  0  0  0  0  0  0  0  0  0  0
   11.4380    6.0700   -6.8000 S   0  0  0  0  0  0  0  0  0  0  0  0
   12.2510    6.7290   -2.0590 C   0  0  0  0  0  0  0  0  0  0  0  0
    7.4750    7.5030  -12.5750 C   0  0  0  0  0  0  0  0  0  0  0  0
    8.1320    5.2270  -11.7520 C   0  0  1  0  0  0  0  0  0  0  0  0
   12.1490    9.0850   -2.6460 C   0  0  0  0  0  0  0  0  0  0  0  0
   12.4460    8.0800   -1.7360 C   0  0  0  0  0  0  0  0  0  0  0  0
    9.6670    7.5020  -10.6520 O   0  0  0  0  0  0  0  0  0  0  0  0
   11.7840    7.4230   -4.3570 C   0  0  0  0  0  0  0  0  0  0  0  0
  2 24  1  0
  4 18  2  0
  5 19  1  0
  8 13  1  0
  9 16  1  0
  9 10  1  1
 12 21  1  0
 13 20  1  0
 13  3  1  0
 15 14  1  6
 15  9  1  0
 16 17  1  0
 17  2  1  0
 18 22  1  0
 19  6  1  0
 20  5  1  6
 20 14  1  0
 21 11  1  0
 21 22  2  0
 22  1  1  0
 23  7  1  0
 23 15  1  0
 24 12  2  0
 24  4  1  0
M  END
>  <GenAI_Model>  (28) 
DiffSBDD

>  <Protein>  (28) 
generic_title2

>  <num_sample>  (28) 
50

$$$$
DiffSBDD_28
     RDKit          3D

 37 44  0  0  0  0  0  0  0  0999 V2000
   12.0160    5.7660   -0.4510 F   0  0  0  0  0  0  0  0  0  0  0  0
    6.4220    5.9070  -12.3670 C   0  0  1  0  0  0  0  0  0  0  0  0
    9.1460    5.8330   -9.7990 C   0  0  0  0  0  0  0  0  0  0  0  0
    6.9960    5.6170  -14.9760 C   0  0  2  0  0  0  0  0  0  0  0  0
   12.0200    7.6920   -6.6150 C   0  0  1  0  0  0  0  0  0  0  0  0
    5.7080    4.6410  -11.9900 C   0  0  0  0  0  0  0  0  0  0  0  0
   10.4010    6.6750   -8.2030 C   0  0  2  0  0  0  0  0  0  0  0  0
   12.0240    8.4470   -2.9770 C   0  0  1  0  0  0  0  0  0  0  0  0
    8.9600    4.5620   -9.6390 C   0  0  0  0  0  0  0  0  0  0  0  0
   11.3350    8.0550   -5.3810 C   0  0  1  0  0  0  0  0  0  0  0  0
    6.3250    7.5100  -13.6400 C   0  0  1  0  0  0  0  0  0  0  0  0
    9.5650    8.1260   -9.9030 C   0  0  0  0  0  0  0  0  0  0  0  0
    6.5940    5.8880  -13.8720 C   0  0  1  0  0  0  0  0  0  0  0  0
    5.7460    8.1110  -14.6570 O   0  0  0  0  0  0  0  0  0  0  0  0
   12.2800    6.9420   -0.9290 C   0  0  1  0  0  0  0  0  0  0  0  0
   11.6160    7.5710   -7.9430 C   0  0  1  0  0  0  0  0  0  0  0  0
   11.9300    8.5730   -7.5010 O   0  0  0  0  0  0  0  0  0  0  0  0
    9.6110    6.8440   -9.2750 N   0  0  0  0  0  0  0  0  0  0  0  0
    7.4980    4.8470  -17.0010 O   0  0  0  0  0  0  0  0  0  0  0  0
   13.5280    7.6110   -0.4180 C   0  0  0  0  0  0  0  0  0  0  0  0
    8.0960    5.4310  -14.1810 O   0  0  0  0  0  0  0  0  0  0  0  0
   10.4440    6.9460   -5.5880 C   0  0  0  0  0  0  0  0  0  0  0  0
    6.2120    7.5810  -12.3140 C   0  0  0  0  0  0  0  0  0  0  0  0
    7.4130    5.8010  -11.0850 N   0  0  0  0  0  0  0  0  0  0  0  0
    6.5460    5.8840  -16.4530 C   0  0  0  0  0  0  0  0  0  0  0  0
   11.8910    9.5880   -2.2310 N   0  0  0  0  0  0  0  0  0  0  0  0
    9.7510    6.7960   -6.7400 C   0  0  0  0  0  0  0  0  0  0  0  0
   12.0940   10.4710   -3.2710 C   0  0  0  0  0  0  0  0  0  0  0  0
   12.0380   10.0080   -4.4750 C   0  0  0  0  0  0  0  0  0  0  0  0
   14.6470    7.7430   -0.5180 O   0  0  0  0  0  0  0  0  0  0  0  0
    9.0650    7.6590  -11.3180 C   0  0  0  0  0  0  0  0  0  0  0  0
   12.3350    7.0070   -2.5220 C   0  0  0  0  0  0  0  0  0  0  0  0
   12.4540    8.0160   -0.0830 O   0  0  0  0  0  0  0  0  0  0  0  0
   11.6070    8.7270   -4.3980 N   0  0  0  0  0  0  0  0  0  0  0  0
    7.1550    4.7030  -10.1610 C   0  0  0  0  0  0  0  0  0  0  0  0
    8.9310    5.1070  -16.9070 C   0  0  0  0  0  0  0  0  0  0  0  0
    8.5640    6.2800  -11.3790 C   0  0  1  0  0  0  0  0  0  0  0  0
  2 23  1  0
  2  6  1  1
  2 24  1  0
  3  9  1  0
  3 18  1  0
  4 25  1  6
  4 21  1  0
  4 13  1  0
  5 17  1  6
  5 10  1  0
  7 16  1  0
  7 27  1  0
  8 32  1  1
  8 26  1  0
 10 22  1  0
 10 34  1  1
 11 14  1  6
 11 23  1  0
 13 21  1  1
 13 11  1  0
 13  2  1  0
 15  1  1  6
 15 20  1  0
 15 33  1  0
 16 17  1  1
 16  5  1  0
 18 12  1  0
  7 18  1  6
 19 36  1  0
 19 25  1  0
 20 33  1  0
 24 35  1  0
 27 22  1  0
 28 26  1  0
 29 28  1  0
 30 20  2  0
 31 12  1  0
 32 15  1  0
 34 29  1  0
 34  8  1  0
 35  9  1  0
 37 31  1  1
 37 24  1  0
 37  3  1  0
M  END
>  <GenAI_Model>  (29) 
DiffSBDD

>  <Protein>  (29) 
generic_title2

>  <num_sample>  (29) 
50

$$$$
DiffSBDD_29
     RDKit          3D

 34 38  0  0  0  0  0  0  0  0999 V2000
   10.0920    7.3700  -10.1590 C   0  0  2  0  0  0  0  0  0  0  0  0
   13.5490    8.3950   -1.5280 F   0  0  0  0  0  0  0  0  0  0  0  0
    5.9400    5.0310  -15.0590 C   0  0  0  0  0  0  0  0  0  0  0  0
    9.5740    6.0390   -6.8190 C   0  0  0  0  0  0  0  0  0  0  0  0
    7.1580    5.0180  -12.1480 C   0  0  1  0  0  0  0  0  0  0  0  0
   11.3450    7.9660  -10.0550 C   0  0  0  0  0  0  0  0  0  0  0  0
   11.3310    6.1010   -1.2120 F   0  0  0  0  0  0  0  0  0  0  0  0
    9.2420    3.9950  -12.1260 O   0  0  0  0  0  0  0  0  0  0  0  0
   11.2350    7.8240   -7.6660 C   0  0  0  0  0  0  0  0  0  0  0  0
   11.5220    8.1060   -6.1340 C   0  0  1  0  0  0  0  0  0  0  0  0
    6.3170    3.5480  -14.9070 C   0  0  0  0  0  0  0  0  0  0  0  0
   11.4940    6.8220   -3.6440 C   0  0  0  0  0  0  0  0  0  0  0  0
   11.6140    8.8010   -0.3270 C   0  0  0  0  0  0  0  0  0  0  0  0
   11.8610    8.3010   -8.8010 C   0  0  0  0  0  0  0  0  0  0  0  0
   12.1710    8.4300   -1.6900 C   0  0  1  0  0  0  0  0  0  0  0  0
   11.9910    9.5370   -2.6740 C   0  0  0  0  0  0  0  0  0  0  0  0
    9.5800    6.7910   -9.0160 N   0  0  0  0  0  0  0  0  0  0  0  0
    6.9580    5.9860  -14.5900 C   0  0  0  0  0  0  0  0  0  0  0  0
   11.6260    7.8930   -4.5230 C   0  0  0  0  0  0  0  0  0  0  0  0
    5.8550    4.4540  -12.5840 C   0  0  0  0  0  0  0  0  0  0  0  0
   11.6590    7.0290   -2.2310 C   0  0  0  0  0  0  0  0  0  0  0  0
    6.0110    3.2160  -13.4700 C   0  0  0  0  0  0  0  0  0  0  0  0
    9.4860    7.2550  -11.4980 C   0  0  0  0  0  0  0  0  0  0  0  0
    8.3110    5.1520  -14.3970 C   0  0  0  0  0  0  0  0  0  0  0  0
    8.3310    4.7640  -13.0370 N   0  0  0  0  0  0  0  0  0  0  0  0
    8.5210    6.0150   -8.9780 O   0  0  0  0  0  0  0  0  0  0  0  0
   11.9670    9.2050   -4.0440 C   0  0  0  0  0  0  0  0  0  0  0  0
    8.4930    5.3960   -7.6450 C   0  0  0  0  0  0  0  0  0  0  0  0
    7.7530    8.7480  -12.5640 C   0  0  0  0  0  0  0  0  0  0  0  0
   12.1520   10.0870   -5.0140 O   0  0  0  0  0  0  0  0  0  0  0  0
   10.1840    6.8840   -7.8770 C   0  0  0  0  0  0  0  0  0  0  0  0
    8.3440    7.3170  -12.4370 C   0  0  2  0  0  0  0  0  0  0  0  0
    7.2110    6.4330  -11.9080 N   0  0  0  0  0  0  0  0  0  0  0  0
   12.1630    9.4710   -6.2830 C   0  0  0  0  0  0  0  0  0  0  0  0
  1 23  1  6
  1  6  1  0
  1 17  1  0
  3 11  1  0
  3 18  1  0
  5 33  1  6
  6 14  2  0
 10  9  1  6
 10 19  1  0
 11 22  1  0
 12 21  2  0
 14  9  1  0
 15  2  1  0
 15 13  1  1
 16 15  1  0
 17 26  1  0
 17 31  1  0
 18 24  1  0
 19 27  2  0
 19 12  1  0
 20  5  1  0
 21 15  1  0
 21  7  1  0
 22 20  1  0
 24 25  1  0
 25  5  1  0
 25  8  1  0
 26 28  1  0
 27 16  1  0
 28  4  2  0
 30 27  1  0
 31  9  2  0
 31  4  1  0
 32 29  1  1
 32 33  1  0
 32 23  1  0
 34 10  1  0
 34 30  1  0
M  END
>  <GenAI_Model>  (30) 
DiffSBDD

>  <Protein>  (30) 
generic_title2

>  <num_sample>  (30) 
50

$$$$
DiffSBDD_30
     RDKit          3D

 25 25  0  0  0  0  0  0  0  0999 V2000
   10.4850    8.0030   -8.6720 C   0  0  0  0  0  0  0  0  0  0  0  0
   11.6910    7.1060   -3.5140 N   0  0  0  0  0  0  0  0  0  0  0  0
    7.2180    5.0380  -11.7720 C   0  0  0  0  0  0  0  0  0  0  0  0
   11.4990    8.8530   -5.7430 O   0  0  0  0  0  0  0  0  0  0  0  0
   11.9290    6.8960   -2.1930 C   0  0  0  0  0  0  0  0  0  0  0  0
    8.4720    5.1910  -11.0300 C   0  0  0  0  0  0  0  0  0  0  0  0
    9.5310    5.9780  -13.0390 O   0  0  0  0  0  0  0  0  0  0  0  0
    9.3570    4.0090  -11.1770 F   0  0  0  0  0  0  0  0  0  0  0  0
    6.7080    6.3260  -11.8670 N   0  0  0  0  0  0  0  0  0  0  0  0
   12.0000    8.4280   -4.0090 C   0  0  0  0  0  0  0  0  0  0  0  0
   10.0490    6.9510   -7.5000 C   0  0  2  0  0  0  0  0  0  0  0  0
   12.6140    8.1820   -1.4460 C   0  0  0  0  0  0  0  0  0  0  0  0
   10.5230    7.0370   -9.9390 C   0  0  0  0  0  0  0  0  0  0  0  0
    9.3020    6.2140  -11.7220 C   0  0  0  0  0  0  0  0  0  0  0  0
   12.8200    6.0030   -2.1160 F   0  0  0  0  0  0  0  0  0  0  0  0
   10.8460    6.7610   -1.5860 F   0  0  0  0  0  0  0  0  0  0  0  0
   12.5640    9.2130   -4.6300 C   0  0  0  0  0  0  0  0  0  0  0  0
   13.3130    8.2390   -0.6780 O   0  0  0  0  0  0  0  0  0  0  0  0
   11.0330    7.8300   -5.6110 N   0  0  0  0  0  0  0  0  0  0  0  0
    8.1300    5.4340   -9.6030 F   0  0  0  0  0  0  0  0  0  0  0  0
    9.0520    7.4230   -6.9480 O   0  0  0  0  0  0  0  0  0  0  0  0
   11.0730    6.7210   -6.5240 C   0  0  0  0  0  0  0  0  0  0  0  0
    8.9370    8.5030  -11.2750 O   0  0  0  0  0  0  0  0  0  0  0  0
   12.1160    9.1120   -2.2900 N   0  0  0  0  0  0  0  0  0  0  0  0
    9.9330    7.4620  -11.3480 C   0  0  1  0  0  0  0  0  0  0  0  0
  1 11  1  0
  2  5  1  0
  3  6  1  0
  4 19  1  0
  4 17  1  0
  5 15  1  0
  5 16  1  0
  5 12  1  0
  6 20  1  0
  8  6  1  0
  9  3  1  0
 10  2  2  0
 10 24  1  0
 11 21  1  1
 11 22  1  0
 12 18  2  0
 13  1  1  0
 14  7  1  0
 14 25  1  0
 14  6  1  0
 17 10  1  0
 22 19  1  0
 24 12  1  0
 25 23  1  1
 25 13  1  0
M  END
>  <GenAI_Model>  (31) 
DiffSBDD

>  <Protein>  (31) 
generic_title2

>  <num_sample>  (31) 
50

$$$$
DiffSBDD_31
     RDKit          3D

 28 30  0  0  0  0  0  0  0  0999 V2000
    5.6400    5.0070  -12.1890 C   0  0  0  0  0  0  0  0  0  0  0  0
    9.3730    5.9620  -10.9110 C   0  0  0  0  0  0  0  0  0  0  0  0
    9.1380    5.5720   -9.4210 C   0  0  0  0  0  0  0  0  0  0  0  0
   11.4880    8.3340   -6.3820 C   0  0  0  0  0  0  0  0  0  0  0  0
    8.8500    3.4290  -12.0600 C   0  0  0  0  0  0  0  0  0  0  0  0
   10.7620    6.7710   -1.7610 O   0  0  0  0  0  0  0  0  0  0  0  0
    7.6070    7.0750  -12.5280 C   0  0  0  0  0  0  0  0  0  0  0  0
   11.5450    6.7700   -4.4800 C   0  0  0  0  0  0  0  0  0  0  0  0
   11.9910    7.3470   -2.1490 C   0  0  2  0  0  0  0  0  0  0  0  0
    6.5700    6.7820  -13.5840 C   0  0  0  0  0  0  0  0  0  0  0  0
    7.8400    4.4950  -12.3610 C   0  0  1  0  0  0  0  0  0  0  0  0
    6.2190    5.4190  -13.5430 C   0  0  1  0  0  0  0  0  0  0  0  0
   11.8280    7.8530   -3.6260 C   0  0  0  0  0  0  0  0  0  0  0  0
    7.8950    8.1300  -12.2480 O   0  0  0  0  0  0  0  0  0  0  0  0
   12.8520    6.2850   -2.2460 F   0  0  0  0  0  0  0  0  0  0  0  0
   11.3070    8.4560   -7.7120 C   0  0  0  0  0  0  0  0  0  0  0  0
    8.1340    5.8290  -11.8560 C   0  0  1  0  0  0  0  0  0  0  0  0
   11.3830    7.0120   -5.7520 C   0  0  0  0  0  0  0  0  0  0  0  0
    5.4580    7.8250  -13.1030 C   0  0  0  0  0  0  0  0  0  0  0  0
    9.8410    6.3320   -8.3480 C   0  0  0  0  0  0  0  0  0  0  0  0
    7.1710    4.3260  -13.6300 C   0  0  0  0  0  0  0  0  0  0  0  0
   10.3340    7.1540  -11.1250 C   0  0  0  0  0  0  0  0  0  0  0  0
   11.8710    9.0920   -4.0920 C   0  0  0  0  0  0  0  0  0  0  0  0
   10.6810    7.4680   -8.6340 C   0  0  0  0  0  0  0  0  0  0  0  0
   11.7100    9.4150   -5.4680 C   0  0  0  0  0  0  0  0  0  0  0  0
   11.0140    7.7940   -9.9880 C   0  0  0  0  0  0  0  0  0  0  0  0
    6.4960    6.8310  -14.9840 C   0  0  0  0  0  0  0  0  0  0  0  0
   12.4890    8.4360   -1.2760 C   0  0  0  0  0  0  0  0  0  0  0  0
  2  3  1  0
  3 20  2  0
  4 18  1  0
  4 25  2  0
  7 14  2  0
  7 17  1  0
  8 13  1  0
  9  6  1  0
  9 28  1  1
 10 12  1  0
 10 19  1  0
 10  7  1  0
 11  5  1  6
 11 17  1  0
 12  1  1  1
 13  9  1  0
 15  9  1  0
 16  4  1  0
 17  2  1  6
 18  8  2  0
 21 12  1  0
 21 11  1  0
 22  2  2  0
 22 26  1  0
 23 13  2  0
 24 20  1  0
 24 16  1  0
 25 23  1  0
 26 24  2  0
 27 10  1  0
M  END
>  <GenAI_Model>  (32) 
DiffSBDD

>  <Protein>  (32) 
generic_title2

>  <num_sample>  (32) 
50

$$$$
DiffSBDD_32
     RDKit          3D

 31 33  0  0  0  0  0  0  0  0999 V2000
   10.7070    8.5420   -5.3240 C   0  0  0  0  0  0  0  0  0  0  0  0
   12.3730    6.4070   -2.5420 C   0  0  0  0  0  0  0  0  0  0  0  0
   12.8730    9.2250   -1.8270 N   0  0  0  0  0  0  0  0  0  0  0  0
    9.3570    6.0850   -8.5780 C   0  0  0  0  0  0  0  0  0  0  0  0
    6.0900    2.6140  -13.5000 C   0  0  0  0  0  0  0  0  0  0  0  0
   11.2710    6.2870   -5.2290 O   0  0  0  0  0  0  0  0  0  0  0  0
    5.7470    4.1780  -10.4800 O   0  0  0  0  0  0  0  0  0  0  0  0
   11.6570    7.7040   -8.5380 C   0  0  0  0  0  0  0  0  0  0  0  0
    9.6680    6.1280  -12.2300 C   0  0  2  0  0  0  0  0  0  0  0  0
    9.7740    7.6210  -12.5500 C   0  0  0  0  0  0  0  0  0  0  0  0
    8.5950    5.4600  -13.1270 C   0  0  0  0  0  0  0  0  0  0  0  0
   11.1280    6.8320   -7.5280 C   0  0  1  0  0  0  0  0  0  0  0  0
    9.9160    6.2420   -7.5820 C   0  0  0  0  0  0  0  0  0  0  0  0
   13.4070    8.0910   -0.9270 C   0  0  0  0  0  0  0  0  0  0  0  0
   11.8030    6.3770   -6.4820 C   0  0  0  0  0  0  0  0  0  0  0  0
   10.8630    9.7340   -4.7550 C   0  0  0  0  0  0  0  0  0  0  0  0
    5.8540    6.3140  -13.5560 C   0  0  0  0  0  0  0  0  0  0  0  0
    5.3520    5.2640  -11.3550 C   0  0  0  0  0  0  0  0  0  0  0  0
    9.7590    6.6840   -9.8710 C   0  0  1  0  0  0  0  0  0  0  0  0
   11.2460    7.4630   -4.5980 C   0  0  0  0  0  0  0  0  0  0  0  0
    7.4870    4.9390  -12.2870 N   0  0  0  0  0  0  0  0  0  0  0  0
   11.5280    9.9040   -3.6360 C   0  0  0  0  0  0  0  0  0  0  0  0
    5.2900    3.8890  -13.2160 C   0  0  0  0  0  0  0  0  0  0  0  0
   11.1950    7.1600   -9.9170 C   0  0  0  0  0  0  0  0  0  0  0  0
   11.9540    7.6330   -3.3890 C   0  0  0  0  0  0  0  0  0  0  0  0
    6.0240    5.0540  -12.7140 C   0  0  2  0  0  0  0  0  0  0  0  0
    8.7930    8.3590  -12.2330 O   0  0  0  0  0  0  0  0  0  0  0  0
   10.7800    7.9880  -13.3490 O   0  0  0  0  0  0  0  0  0  0  0  0
   12.5460    6.8630   -1.0560 C   0  0  0  0  0  0  0  0  0  0  0  0
    9.5620    5.6520  -10.8530 C   0  0  0  0  0  0  0  0  0  0  0  0
   12.1420    8.9080   -2.9940 C   0  0  0  0  0  0  0  0  0  0  0  0
  1 16  1  0
  1 20  2  0
  2 29  1  0
  3 14  1  0
  4 13  2  0
  5 23  1  0
  6 20  1  0
  8 12  1  0
  9 11  1  6
  9 30  1  0
 10 27  1  0
 10  9  1  0
 11 21  1  0
 12 15  1  6
 13 12  1  0
 15  6  1  0
 16 22  2  0
 18  7  1  0
 19 30  1  6
 19  4  1  0
 20 25  1  0
 22 31  1  0
 23 26  1  0
 24 19  1  0
 24  8  1  0
 25 31  2  0
 25  2  1  0
 26 17  1  6
 26 21  1  0
 26 18  1  0
 28 10  2  0
 29 14  1  0
 31  3  1  0
M  END
>  <GenAI_Model>  (33) 
DiffSBDD

>  <Protein>  (33) 
generic_title2

>  <num_sample>  (33) 
50

$$$$
DiffSBDD_33
     RDKit          3D

 29 35  0  0  0  0  0  0  0  0999 V2000
   11.5860    8.7140   -9.7100 C   0  0  0  0  0  0  0  0  0  0  0  0
   10.6200    7.7190   -7.7170 C   0  0  0  0  0  0  0  0  0  0  0  0
    9.6290    6.3720  -11.0720 C   0  0  2  0  0  0  0  0  0  0  0  0
    6.0440    7.2060  -14.6130 C   0  0  0  0  0  0  0  0  0  0  0  0
   12.4110    9.3440   -3.2510 C   0  0  0  0  0  0  0  0  0  0  0  0
    9.6680    5.6480   -8.5230 C   0  0  0  0  0  0  0  0  0  0  0  0
   11.7040    8.6610   -5.6690 C   0  0  0  0  0  0  0  0  0  0  0  0
   10.9220    6.4290   -5.1280 S   0  0  0  0  0  0  0  0  0  0  0  0
   12.1050    9.7050   -6.4300 C   0  0  0  0  0  0  0  0  0  0  0  0
   11.9160    8.4870   -4.1990 C   0  0  0  0  0  0  0  0  0  0  0  0
    5.1630    4.6830  -13.8020 C   0  0  0  0  0  0  0  0  0  0  0  0
   11.0320    7.6140   -6.2360 C   0  0  0  0  0  0  0  0  0  0  0  0
   12.6480    8.9350   -1.9770 C   0  0  0  0  0  0  0  0  0  0  0  0
    9.7950    7.3470  -10.2130 N   0  0  0  0  0  0  0  0  0  0  0  0
   11.8180    6.8360   -2.4870 C   0  0  0  0  0  0  0  0  0  0  0  0
    5.7710    4.1310  -11.3040 O   0  0  0  0  0  0  0  0  0  0  0  0
    5.8340    4.0700  -12.1410 C   0  0  2  0  0  0  0  0  0  0  0  0
   11.9730    9.7640   -7.7200 N   0  0  0  0  0  0  0  0  0  0  0  0
   11.6020    7.2740   -3.7940 C   0  0  0  0  0  0  0  0  0  0  0  0
   12.4060    7.6770   -1.5900 C   0  0  0  0  0  0  0  0  0  0  0  0
    7.6940    5.2150  -11.7480 N   0  0  0  0  0  0  0  0  0  0  0  0
    8.7870    6.1280  -12.2160 C   0  0  0  0  0  0  0  0  0  0  0  0
    9.4390    5.0140  -10.0000 C   0  0  1  0  0  0  0  0  0  0  0  0
   11.3360    8.8290   -8.2230 C   0  0  0  0  0  0  0  0  0  0  0  0
    6.7410    5.0950  -13.2430 C   0  0  1  0  0  0  0  0  0  0  0  0
    6.5950    6.7210  -13.3790 C   0  0  0  0  0  0  0  0  0  0  0  0
   10.8630    8.0500  -10.8090 C   0  0  0  0  0  0  0  0  0  0  0  0
    9.7290    7.0660   -8.6010 C   0  0  2  0  0  0  0  0  0  0  0  0
    8.2400    4.8930  -10.2640 C   0  0  0  0  0  0  0  0  0  0  0  0
  1 24  1  0
  2 12  2  0
  3 22  1  6
  3 14  1  0
  3 23  1  0
  4 26  1  0
  5 13  1  0
  7 10  1  0
  8 19  1  0
  9  7  2  0
 10 19  1  0
 10  5  2  0
 11 25  1  0
 11 17  1  0
 12  7  1  0
 12  8  1  0
 13 20  2  0
 14 27  1  0
 14 28  1  0
 15 20  1  0
 17 16  1  1
 18  9  1  0
 19 15  2  0
 21 22  1  0
 21 29  1  0
 23 29  1  1
 23  6  1  0
 24 18  2  0
 24  2  1  0
 25 26  1  1
 25 17  1  0
 25 21  1  0
 27  1  1  0
 28  6  1  6
 28  2  1  0
M  END
>  <GenAI_Model>  (34) 
DiffSBDD

>  <Protein>  (34) 
generic_title2

>  <num_sample>  (34) 
50

$$$$
DiffSBDD_34
     RDKit          3D

 16 16  0  0  0  0  0  0  0  0999 V2000
   11.7770    9.0060   -4.2350 C   0  0  0  0  0  0  0  0  0  0  0  0
   10.8280    6.3210   -7.2560 C   0  0  0  0  0  0  0  0  0  0  0  0
    9.0110    7.8710  -11.6620 C   0  0  0  0  0  0  0  0  0  0  0  0
    9.1110    4.8850  -10.0690 C   0  0  0  0  0  0  0  0  0  0  0  0
   12.3910    8.9670   -3.0890 C   0  0  0  0  0  0  0  0  0  0  0  0
   12.4010    6.5990   -2.7380 C   0  0  0  0  0  0  0  0  0  0  0  0
   11.6880    9.4120   -5.5890 C   0  0  0  0  0  0  0  0  0  0  0  0
    8.9140    5.2920   -8.6180 C   0  0  0  0  0  0  0  0  0  0  0  0
   11.6270    8.3640   -6.6690 C   0  0  0  0  0  0  0  0  0  0  0  0
    8.3090    5.2260  -11.2150 C   0  0  2  0  0  0  0  0  0  0  0  0
    8.3740    6.6400  -11.7680 C   0  0  0  0  0  0  0  0  0  0  0  0
   10.8750    7.2420   -6.1810 C   0  0  0  0  0  0  0  0  0  0  0  0
   11.9890    6.7380   -1.4800 C   0  0  0  0  0  0  0  0  0  0  0  0
    9.7620    6.4720   -8.3960 C   0  0  0  0  0  0  0  0  0  0  0  0
    6.8110    5.2630  -10.4690 O   0  0  0  0  0  0  0  0  0  0  0  0
   12.2160    7.7820   -2.1090 C   0  0  0  0  0  0  0  0  0  0  0  0
  1  5  1  0
  2 12  1  0
  4  8  1  0
  5 16  1  0
  6 16  1  0
  6 13  1  0
  7  1  1  0
  8 14  1  0
  9 12  1  0
  9  7  1  0
 10 15  1  1
 10  4  1  0
 11  3  1  0
 11 10  1  0
 14  2  1  0
 16 13  1  0
M  END
>  <GenAI_Model>  (35) 
DiffSBDD

>  <Protein>  (35) 
generic_title2

>  <num_sample>  (35) 
50

$$$$
DiffSBDD_35
     RDKit          3D

 46 51  0  0  0  0  0  0  0  0999 V2000
    8.1090    4.7220  -10.3580 C   0  0  0  0  0  0  0  0  0  0  0  0
    9.0170    3.5890  -12.1330 O   0  0  0  0  0  0  0  0  0  0  0  0
   11.5990   10.2280   -7.3560 C   0  0  0  0  0  0  0  0  0  0  0  0
   12.6000   10.1550   -0.8510 C   0  0  0  0  0  0  0  0  0  0  0  0
    7.1650    3.9540   -9.8840 O   0  0  0  0  0  0  0  0  0  0  0  0
   12.7230    7.8590   -1.8680 C   0  0  0  0  0  0  0  0  0  0  0  0
   12.4100   10.0750   -2.0430 C   0  0  0  0  0  0  0  0  0  0  0  0
   11.1760    9.1400   -7.0610 C   0  0  0  0  0  0  0  0  0  0  0  0
    9.0450    6.2450   -7.0260 C   0  0  0  0  0  0  0  0  0  0  0  0
   12.3930   10.8860   -5.1970 C   0  0  0  0  0  0  0  0  0  0  0  0
    5.8290    1.8500  -14.4730 C   0  0  0  0  0  0  0  0  0  0  0  0
   12.5960   10.9140    0.4750 F   0  0  0  0  0  0  0  0  0  0  0  0
    8.1330    8.0480  -12.6920 C   0  0  0  0  0  0  0  0  0  0  0  0
   12.3420    6.2720   -5.8070 O   0  0  0  0  0  0  0  0  0  0  0  0
    8.4010    5.7880  -12.8750 C   0  0  0  0  0  0  0  0  0  0  0  0
    7.5570    6.8610  -12.9280 N   0  0  0  0  0  0  0  0  0  0  0  0
    9.0350    6.7950   -9.9580 C   0  0  0  0  0  0  0  0  0  0  0  0
   12.9270    8.4970   -0.4560 C   0  0  0  0  0  0  0  0  0  0  0  0
    5.7070    3.3330  -14.6480 C   0  0  2  0  0  0  0  0  0  0  0  0
    8.2750    5.7760   -9.3130 N   0  0  0  0  0  0  0  0  0  0  0  0
   12.0470    9.6230   -4.7740 C   0  0  0  0  0  0  0  0  0  0  0  0
    5.5120    4.8350  -16.6410 O   0  0  0  0  0  0  0  0  0  0  0  0
   13.2540    5.5780   -1.2500 F   0  0  0  0  0  0  0  0  0  0  0  0
   10.3050    6.6310   -4.4090 O   0  0  0  0  0  0  0  0  0  0  0  0
   10.5710    7.8280   -6.7490 N   0  0  0  0  0  0  0  0  0  0  0  0
   11.3290    5.9640   -2.2540 F   0  0  0  0  0  0  0  0  0  0  0  0
    7.9770    4.6040  -11.9320 C   0  0  2  0  0  0  0  0  0  0  0  0
    9.9490    6.8570   -7.8940 C   0  0  0  0  0  0  0  0  0  0  0  0
    5.0180    3.7250  -15.9280 C   0  0  0  0  0  0  0  0  0  0  0  0
    5.5840    7.7600  -13.5930 O   0  0  0  0  0  0  0  0  0  0  0  0
    6.1420    4.4350  -13.9150 C   0  0  0  0  0  0  0  0  0  0  0  0
   11.2780    7.1310   -5.2670 S   0  0  0  0  0  0  0  0  0  0  0  0
   13.2010    5.8150   -3.3930 F   0  0  0  0  0  0  0  0  0  0  0  0
    6.5250    4.1100  -12.5000 C   0  0  0  0  0  0  0  0  0  0  0  0
    6.0300    5.7690  -14.3650 C   0  0  0  0  0  0  0  0  0  0  0  0
   13.8440    7.8280    0.5190 C   0  0  0  0  0  0  0  0  0  0  0  0
   12.3860    7.9450    0.7300 C   0  0  0  0  0  0  0  0  0  0  0  0
   12.3930    8.7510   -2.8460 C   0  0  0  0  0  0  0  0  0  0  0  0
   12.2550   11.2790   -6.5590 C   0  0  0  0  0  0  0  0  0  0  0  0
    6.3470    6.8740  -13.5930 C   0  0  0  0  0  0  0  0  0  0  0  0
    9.3320    5.7730  -13.5800 O   0  0  0  0  0  0  0  0  0  0  0  0
   12.7070    6.3070   -2.2420 C   0  0  0  0  0  0  0  0  0  0  0  0
    9.4680    7.5340   -8.7850 C   0  0  0  0  0  0  0  0  0  0  0  0
    8.2040    5.5870   -7.8470 C   0  0  0  0  0  0  0  0  0  0  0  0
   11.9820    8.4900   -4.3400 C   0  0  0  0  0  0  0  0  0  0  0  0
    5.4270    6.0400  -15.7660 C   0  0  0  0  0  0  0  0  0  0  0  0
  1  5  2  0
  1 20  1  0
  3  8  1  0
  3 39  1  0
  4 18  1  0
  4 12  1  0
  6 18  1  0
  7  4  2  0
 10 21  2  0
 14 32  2  0
 15 27  1  0
 16 15  1  0
 16 13  1  0
 17 20  1  0
 17 43  1  0
 18 36  1  0
 18 37  1  0
 19 11  1  6
 19 31  1  0
 20 44  1  0
 21 45  2  0
 22 29  1  0
 22 46  1  0
 25  8  1  0
 25 32  1  0
 26 42  1  0
 27  2  1  6
 27  1  1  0
 28 43  1  0
 28  9  1  0
 28 25  1  0
 29 19  1  0
 31 34  1  0
 32 24  2  0
 32 45  1  0
 33 42  1  0
 34 27  1  0
 35 31  2  0
 35 40  1  0
 36 37  1  0
 38  7  1  0
 38  6  2  0
 39 10  1  0
 40 30  2  0
 40 16  1  0
 41 15  2  0
 42  6  1  0
 42 23  1  0
 44  9  1  0
 45 38  1  0
 46 35  1  0
M  END
>  <GenAI_Model>  (36) 
DiffSBDD

>  <Protein>  (36) 
generic_title2

>  <num_sample>  (36) 
50

$$$$
DiffSBDD_36
     RDKit          3D

 18 18  0  0  0  0  0  0  0  0999 V2000
    9.8590    6.0410  -12.2070 C   0  0  0  0  0  0  0  0  0  0  0  0
    9.9550    8.3590   -8.2590 O   0  0  0  0  0  0  0  0  0  0  0  0
    9.6230    7.7050   -9.4520 C   0  0  1  0  0  0  0  0  0  0  0  0
    6.5350    6.1620  -14.2240 C   0  0  0  0  0  0  0  0  0  0  0  0
    7.5630    5.1220   -9.1750 O   0  0  0  0  0  0  0  0  0  0  0  0
    6.6150    5.9420  -15.5680 C   0  0  1  0  0  0  0  0  0  0  0  0
    6.3600    6.8790  -16.5830 O   0  0  0  0  0  0  0  0  0  0  0  0
    6.9790    5.1360  -13.4710 C   0  0  0  0  0  0  0  0  0  0  0  0
   10.3930    8.4700  -10.6370 C   0  0  0  0  0  0  0  0  0  0  0  0
    8.8310    5.1230   -9.9180 S   0  0  0  0  0  0  0  0  0  0  0  0
    5.9610    7.4940  -13.6770 C   0  0  0  0  0  0  0  0  0  0  0  0
    9.7570    6.2190   -9.5720 N   0  0  0  0  0  0  0  0  0  0  0  0
    7.2440    4.1540  -17.1710 O   0  0  0  0  0  0  0  0  0  0  0  0
    7.1360    4.8010  -12.0160 C   0  0  0  0  0  0  0  0  0  0  0  0
    7.2380    4.6780  -16.0020 C   0  0  0  0  0  0  0  0  0  0  0  0
    7.7620    3.8120  -14.5470 S   0  0  0  0  0  0  0  0  0  0  0  0
    8.3990    5.5960  -11.5410 C   0  0  2  0  0  0  0  0  0  0  0  0
    9.3630    3.7710  -10.0330 O   0  0  0  0  0  0  0  0  0  0  0  0
  3  9  1  6
  3  2  1  0
  4 11  1  0
  4  8  2  0
  6  7  1  6
  6  4  1  0
  8 14  1  0
 10 12  1  0
 10  5  2  0
 12  3  1  0
 13 15  2  0
 14 17  1  0
 15  6  1  0
 15 16  1  0
 16  8  1  0
 17  1  1  6
 17 10  1  0
 18 10  2  0
M  END
>  <GenAI_Model>  (37) 
DiffSBDD

>  <Protein>  (37) 
generic_title2

>  <num_sample>  (37) 
50

$$$$
DiffSBDD_37
     RDKit          3D

 39 44  0  0  0  0  0  0  0  0999 V2000
    8.9310    5.7790  -10.1360 C   0  0  1  0  0  0  0  0  0  0  0  0
    6.3420    5.7080  -15.8240 O   0  0  0  0  0  0  0  0  0  0  0  0
    9.8650    5.8660   -4.1160 F   0  0  0  0  0  0  0  0  0  0  0  0
    7.5700    7.7780  -12.1150 C   0  0  0  0  0  0  0  0  0  0  0  0
    8.9370    3.8690   -8.5500 C   0  0  0  0  0  0  0  0  0  0  0  0
    6.6460    5.1800   -9.6500 O   0  0  0  0  0  0  0  0  0  0  0  0
    7.6050    4.8400  -10.2980 C   0  0  0  0  0  0  0  0  0  0  0  0
   12.1060    8.0090   -3.3790 C   0  0  0  0  0  0  0  0  0  0  0  0
    9.9030    7.7060  -10.9820 C   0  0  0  0  0  0  0  0  0  0  0  0
    8.8600    4.9650   -7.9280 O   0  0  0  0  0  0  0  0  0  0  0  0
   10.7240    7.8410   -9.3160 C   0  0  0  0  0  0  0  0  0  0  0  0
    6.4210    5.3750  -13.1060 C   0  0  0  0  0  0  0  0  0  0  0  0
   12.5190    7.5510    0.6890 F   0  0  0  0  0  0  0  0  0  0  0  0
    5.6300    7.3250  -15.1870 C   0  0  0  0  0  0  0  0  0  0  0  0
    9.0860    7.2940  -12.3260 C   0  0  2  0  0  0  0  0  0  0  0  0
   11.8500    9.6990   -5.4710 C   0  0  0  0  0  0  0  0  0  0  0  0
   12.0040    8.5520   -9.6180 O   0  0  0  0  0  0  0  0  0  0  0  0
   11.4770    9.3250   -7.6630 C   0  0  0  0  0  0  0  0  0  0  0  0
   12.3690    8.3750   -9.1810 C   0  0  0  0  0  0  0  0  0  0  0  0
    6.0390    7.6540  -13.8800 C   0  0  0  0  0  0  0  0  0  0  0  0
    5.2740    5.7400  -15.0520 C   0  0  2  0  0  0  0  0  0  0  0  0
   12.2940    7.7630   -0.6680 C   0  0  0  0  0  0  0  0  0  0  0  0
   12.6140    9.0590   -1.1170 C   0  0  0  0  0  0  0  0  0  0  0  0
    9.1680    7.0830  -13.2760 O   0  0  0  0  0  0  0  0  0  0  0  0
   11.6190    8.4580   -5.1070 C   0  0  1  0  0  0  0  0  0  0  0  0
   11.9610    6.6870   -3.0210 C   0  0  1  0  0  0  0  0  0  0  0  0
    7.7320    3.8510  -11.0550 O   0  0  0  0  0  0  0  0  0  0  0  0
    9.5840    6.3310  -10.9910 N   0  0  0  0  0  0  0  0  0  0  0  0
    9.1950    6.0450   -8.8150 C   0  0  1  0  0  0  0  0  0  0  0  0
   10.7950    6.6860   -8.7080 C   0  0  2  0  0  0  0  0  0  0  0  0
   11.6100   10.2440   -6.1420 C   0  0  0  0  0  0  0  0  0  0  0  0
   11.8780    6.6980   -1.6040 C   0  0  0  0  0  0  0  0  0  0  0  0
    6.3140    6.7980  -12.8630 C   0  0  2  0  0  0  0  0  0  0  0  0
   11.2120    6.1110   -4.3760 C   0  0  2  0  0  0  0  0  0  0  0  0
   12.2840    8.9820   -2.5260 C   0  0  0  0  0  0  0  0  0  0  0  0
   11.1680    5.8790   -5.9740 S   0  0  0  0  0  0  0  0  0  0  0  0
    5.7010    4.7470  -14.0290 C   0  0  0  0  0  0  0  0  0  0  0  0
   11.8930    7.6100   -6.0500 C   0  0  1  0  0  0  0  0  0  0  0  0
   11.5250    7.9670   -7.4780 C   0  0  2  0  0  0  0  0  0  0  0  0
  1  7  1  0
  1 29  1  0
  5 10  1  0
  7  6  1  0
  8 26  1  0
  8 35  2  0
 30 11  1  6
 12 33  1  0
 14 21  1  0
 14 20  1  0
 15 24  1  6
 15  4  1  0
 15 28  1  0
 15  9  1  0
 17 11  1  0
 17 19  1  0
 39 18  1  1
 18 31  1  0
 20 33  1  0
 21  2  1  6
 21 37  1  0
 22 13  1  0
 23 22  1  0
 25 16  1  6
 25  8  1  0
 26 32  1  1
 27  7  2  0
 28  9  1  0
  1 28  1  6
 29 10  1  1
 30 29  1  0
 30 39  1  0
 31 16  1  0
 32 22  2  0
 33  4  1  6
 34  3  1  6
 34 26  1  0
 35 23  1  0
 36 34  1  0
 37 12  1  0
 38 36  1  1
 38 25  1  0
 39 19  1  0
 39 38  1  0
M  END
>  <GenAI_Model>  (38) 
DiffSBDD

>  <Protein>  (38) 
generic_title2

>  <num_sample>  (38) 
50

$$$$
DiffSBDD_38
     RDKit          3D

 22 24  0  0  0  0  0  0  0  0999 V2000
    8.7630    5.4320   -8.0140 C   0  0  0  0  0  0  0  0  0  0  0  0
    8.0200    6.0660  -11.8750 C   0  0  0  0  0  0  0  0  0  0  0  0
    8.9480    5.7330  -10.6310 N   0  0  0  0  0  0  0  0  0  0  0  0
   12.1420    7.9000   -3.6050 C   0  0  2  0  0  0  0  0  0  0  0  0
   12.6990    7.6350   -2.3140 C   0  0  1  0  0  0  0  0  0  0  0  0
   12.3400    8.8040   -2.5040 C   0  0  0  0  0  0  0  0  0  0  0  0
   10.0470    5.8550   -7.2230 C   0  0  0  0  0  0  0  0  0  0  0  0
   11.4980    8.1090   -7.1990 C   0  0  0  0  0  0  0  0  0  0  0  0
   11.0290    9.8120   -5.4200 C   0  0  0  0  0  0  0  0  0  0  0  0
    8.0920    6.2410  -12.9410 C   0  0  0  0  0  0  0  0  0  0  0  0
    6.7090    5.7950  -11.7400 C   0  0  0  0  0  0  0  0  0  0  0  0
   11.3480    8.4520   -5.8460 C   0  0  0  0  0  0  0  0  0  0  0  0
    5.8890    5.3970  -14.0580 C   0  0  0  0  0  0  0  0  0  0  0  0
   10.4150    7.3380   -7.6750 C   0  0  1  0  0  0  0  0  0  0  0  0
   11.5710    7.3960   -4.7630 C   0  0  0  0  0  0  0  0  0  0  0  0
    8.8270    4.8180   -9.4330 C   0  0  0  0  0  0  0  0  0  0  0  0
    5.8330    5.0200  -12.6740 C   0  0  0  0  0  0  0  0  0  0  0  0
    9.8550    7.6290   -9.1010 C   0  0  0  0  0  0  0  0  0  0  0  0
   11.8590    6.5720   -2.2420 C   0  0  0  0  0  0  0  0  0  0  0  0
    7.0340    6.2850  -14.1420 C   0  0  0  0  0  0  0  0  0  0  0  0
    9.9160    6.8910  -10.4130 C   0  0  0  0  0  0  0  0  0  0  0  0
   10.3760    7.5240  -11.2990 O   0  0  0  0  0  0  0  0  0  0  0  0
  1  7  1  0
  2 11  1  0
  2  3  1  0
  3 21  1  0
  3 16  1  0
  4 15  1  1
  4  6  1  0
  4  5  1  0
  5 19  1  1
  6  5  1  0
  8 12  1  0
 10  2  2  0
 12  9  1  0
 12 15  1  0
 13 17  1  0
 14  7  1  0
 14  8  1  6
 16  1  1  0
 17 11  1  0
 18 14  1  0
 20 13  1  0
 20 10  1  0
 21 18  1  0
 22 21  2  0
M  END
>  <GenAI_Model>  (39) 
DiffSBDD

>  <Protein>  (39) 
generic_title2

>  <num_sample>  (39) 
50

$$$$
DiffSBDD_39
     RDKit          3D

 31 34  0  0  0  0  0  0  0  0999 V2000
   10.7330    6.2860   -7.2010 C   0  0  0  0  0  0  0  0  0  0  0  0
   13.0280    6.0770   -0.6290 F   0  0  0  0  0  0  0  0  0  0  0  0
   10.7080    6.5550   -0.6440 F   0  0  0  0  0  0  0  0  0  0  0  0
    7.2000    5.0770  -15.1410 C   0  0  0  0  0  0  0  0  0  0  0  0
    8.8360    6.0060   -8.8830 C   0  0  0  0  0  0  0  0  0  0  0  0
    9.3660    6.9370  -11.1940 C   0  0  1  0  0  0  0  0  0  0  0  0
    8.3990    4.5350  -15.5440 O   0  0  0  0  0  0  0  0  0  0  0  0
   11.9590    8.2770   -3.2320 C   0  0  2  0  0  0  0  0  0  0  0  0
   12.0630    8.3780   -8.8680 C   0  0  0  0  0  0  0  0  0  0  0  0
    7.5110    5.5910  -11.4710 C   0  0  2  0  0  0  0  0  0  0  0  0
   12.1030   10.4860   -2.9310 O   0  0  0  0  0  0  0  0  0  0  0  0
   12.2860    8.3790   -7.3970 C   0  0  0  0  0  0  0  0  0  0  0  0
   11.6350    7.3090   -6.6330 N   0  0  0  0  0  0  0  0  0  0  0  0
   12.2260    8.2000   -0.1650 C   0  0  0  0  0  0  0  0  0  0  0  0
   10.1380    6.5650   -8.5250 C   0  0  1  0  0  0  0  0  0  0  0  0
   11.0380    8.0830   -5.5050 C   0  0  0  0  0  0  0  0  0  0  0  0
   11.9360    9.3830   -0.8320 O   0  0  0  0  0  0  0  0  0  0  0  0
   10.8190    7.6910  -10.6640 C   0  0  0  0  0  0  0  0  0  0  0  0
    8.4660    6.2600  -10.3720 N   0  0  0  0  0  0  0  0  0  0  0  0
    7.0100    5.1740  -13.6790 C   0  0  1  0  0  0  0  0  0  0  0  0
    5.9220    4.4660  -13.0230 C   0  0  0  0  0  0  0  0  0  0  0  0
   12.0540    8.4510   -4.5300 C   0  0  0  0  0  0  0  0  0  0  0  0
   10.8710    7.6000   -9.3280 C   0  0  2  0  0  0  0  0  0  0  0  0
   12.3560    9.3440   -2.2290 C   0  0  1  0  0  0  0  0  0  0  0  0
   11.8060    6.9760   -2.6230 C   0  0  0  0  0  0  0  0  0  0  0  0
    6.0730    3.7440  -11.6970 C   0  0  0  0  0  0  0  0  0  0  0  0
   11.9120    6.9070   -1.1300 C   0  0  0  0  0  0  0  0  0  0  0  0
   11.9500    5.9690   -3.3200 O   0  0  0  0  0  0  0  0  0  0  0  0
    6.8460    4.6390  -10.8050 C   0  0  0  0  0  0  0  0  0  0  0  0
    8.7850    7.9480  -11.5960 O   0  0  0  0  0  0  0  0  0  0  0  0
    8.1690    5.2910  -12.7980 C   0  0  0  0  0  0  0  0  0  0  0  0
  1 13  1  0
  6 30  1  1
  6 18  1  0
  6 19  1  0
  7  4  1  0
  8 22  1  6
  8 25  1  0
  8 24  1  0
  9 12  1  0
 10 31  1  0
 10 29  1  0
 10 19  1  1
 12 13  1  0
 13 16  1  0
 15  5  1  1
 15  1  1  0
 16 22  1  0
 17 14  1  0
 19  5  1  0
 20  4  1  6
 20 21  1  0
 20 31  1  0
 21 26  1  0
 23 18  1  6
 23  9  1  0
 23 15  1  0
 24 11  1  6
 24 17  1  0
 25 27  1  0
 26 29  1  0
 27  3  1  0
 27  2  1  0
 27 14  1  0
 28 25  2  0
M  END
>  <GenAI_Model>  (40) 
DiffSBDD

>  <Protein>  (40) 
generic_title2

>  <num_sample>  (40) 
50

$$$$
DiffSBDD_40
     RDKit          3D

 35 37  0  0  0  0  0  0  0  0999 V2000
   12.3160    9.5530   -1.5900 C   0  0  0  0  0  0  0  0  0  0  0  0
    7.7260    3.0590  -17.7580 O   0  0  0  0  0  0  0  0  0  0  0  0
    6.3530    7.2690  -14.6640 C   0  0  0  0  0  0  0  0  0  0  0  0
   12.1000    9.4660   -2.7450 C   0  0  0  0  0  0  0  0  0  0  0  0
    6.1160    4.7240  -12.7450 C   0  0  2  0  0  0  0  0  0  0  0  0
    9.4660    6.9600   -9.2920 C   0  0  0  0  0  0  0  0  0  0  0  0
   10.2690    7.3960   -8.3930 C   0  0  2  0  0  0  0  0  0  0  0  0
    5.6720    3.0970  -12.6430 C   0  0  0  0  0  0  0  0  0  0  0  0
    6.6600    6.3710  -13.5770 C   0  0  0  0  0  0  0  0  0  0  0  0
   12.0040    9.9110   -5.0790 C   0  0  0  0  0  0  0  0  0  0  0  0
   13.1520    7.4660   -0.7000 C   0  0  0  0  0  0  0  0  0  0  0  0
    6.5620    5.2860  -16.5240 C   0  0  2  0  0  0  0  0  0  0  0  0
   13.0950    9.3220    0.9340 F   0  0  0  0  0  0  0  0  0  0  0  0
   11.1510    8.4920   -8.4660 C   0  0  0  0  0  0  0  0  0  0  0  0
    6.4310    4.9650  -13.7240 C   0  0  1  0  0  0  0  0  0  0  0  0
    6.9510    4.2760  -15.1160 C   0  0  0  0  0  0  0  0  0  0  0  0
   10.7600    7.9300   -5.7910 C   0  0  0  0  0  0  0  0  0  0  0  0
   11.4020    6.6980   -6.4300 C   0  0  0  0  0  0  0  0  0  0  0  0
   12.4350    6.8250   -2.9430 C   0  0  0  0  0  0  0  0  0  0  0  0
    6.9720    4.4690  -11.2440 C   0  0  0  0  0  0  0  0  0  0  0  0
    9.2130    6.1460  -10.5890 C   0  0  0  0  0  0  0  0  0  0  0  0
   12.3060    8.0170   -3.4120 C   0  0  0  0  0  0  0  0  0  0  0  0
   13.8210    7.1000    0.2970 F   0  0  0  0  0  0  0  0  0  0  0  0
   11.7460   10.6220   -3.5210 S   0  0  0  0  0  0  0  0  0  0  0  0
    7.0940    5.0590  -18.9040 O   0  0  0  0  0  0  0  0  0  0  0  0
    5.1950    7.5760  -16.8470 C   0  0  0  0  0  0  0  0  0  0  0  0
   12.9340    6.6040   -1.5760 C   0  0  0  0  0  0  0  0  0  0  0  0
   11.6290    9.1340   -7.4440 C   0  0  0  0  0  0  0  0  0  0  0  0
    7.1380    4.6350  -17.8120 C   0  0  0  0  0  0  0  0  0  0  0  0
   12.8720    8.7510   -0.5350 C   0  0  2  0  0  0  0  0  0  0  0  0
   11.7250    9.1230   -5.8960 C   0  0  0  0  0  0  0  0  0  0  0  0
    8.1350    5.1220  -10.7170 C   0  0  0  0  0  0  0  0  0  0  0  0
    6.1230    6.6640  -16.1880 C   0  0  1  0  0  0  0  0  0  0  0  0
    9.9220    5.0730   -8.0300 C   0  0  0  0  0  0  0  0  0  0  0  0
   10.7810    6.2290   -7.7760 C   0  0  1  0  0  0  0  0  0  0  0  0
  1 30  1  0
  3  9  1  0
  4  1  2  0
  5  8  1  6
  5 20  1  0
  7  6  1  6
  7 35  1  0
 10 24  1  0
 11 30  1  0
 11 23  1  0
 12 29  1  6
 12 33  1  0
 12 16  1  0
 14  7  1  0
 14 28  1  0
 15  9  1  1
 15  5  1  0
 16 15  1  0
 18 17  1  0
 19 27  1  0
 20 32  2  0
 21  6  1  0
 22 19  2  0
 22  4  1  0
 24  4  1  0
 25 29  2  0
 27 11  2  0
 28 31  2  0
 29  2  1  0
 30 13  1  1
 31 17  1  0
 31 10  1  0
 32 21  2  0
 33 26  1  1
 33  3  1  0
 35 34  1  1
 35 18  1  0
M  END
>  <GenAI_Model>  (41) 
DiffSBDD

>  <Protein>  (41) 
generic_title2

>  <num_sample>  (41) 
50

$$$$
DiffSBDD_41
     RDKit          3D

 33 37  0  0  0  0  0  0  0  0999 V2000
    5.6920    4.1210  -12.9070 C   0  0  0  0  0  0  0  0  0  0  0  0
    8.9380    4.7620  -11.7210 C   0  0  0  0  0  0  0  0  0  0  0  0
    8.9360    5.8880   -8.5610 C   0  0  0  0  0  0  0  0  0  0  0  0
    5.4310    4.1590  -11.3950 C   0  0  0  0  0  0  0  0  0  0  0  0
   12.7440    7.6780   -0.9300 C   0  0  0  0  0  0  0  0  0  0  0  0
   12.8560    9.0810   -1.3120 C   0  0  0  0  0  0  0  0  0  0  0  0
   11.8920    8.4580   -3.3550 C   0  0  0  0  0  0  0  0  0  0  0  0
   11.6350    7.1510   -2.9090 C   0  0  0  0  0  0  0  0  0  0  0  0
    8.2140    6.1510  -11.4810 C   0  0  1  0  0  0  0  0  0  0  0  0
   11.6750    8.3470   -6.7840 C   0  0  0  0  0  0  0  0  0  0  0  0
    5.9200    2.6770  -13.3850 C   0  0  0  0  0  0  0  0  0  0  0  0
   12.1820    6.7260   -1.7290 C   0  0  0  0  0  0  0  0  0  0  0  0
   12.3920    9.4320   -2.5360 C   0  0  0  0  0  0  0  0  0  0  0  0
    9.1600    7.4500  -11.4180 C   0  0  2  0  0  0  0  0  0  0  0  0
   11.5370   10.0040   -5.2380 C   0  0  0  0  0  0  0  0  0  0  0  0
   11.4680    8.6190   -4.7340 N   0  0  0  0  0  0  0  0  0  0  0  0
    7.1350    6.2810  -12.5390 C   0  0  2  0  0  0  0  0  0  0  0  0
   11.2220    8.7070   -8.1500 C   0  0  0  0  0  0  0  0  0  0  0  0
    8.3150    8.6340  -12.2640 C   0  0  0  0  0  0  0  0  0  0  0  0
    7.7700    4.9940  -14.7000 C   0  0  0  0  0  0  0  0  0  0  0  0
   10.5300    6.9010  -12.0560 C   0  0  0  0  0  0  0  0  0  0  0  0
   11.1980    7.5570   -5.9460 C   0  0  1  0  0  0  0  0  0  0  0  0
   12.2970   10.4190   -6.1250 O   0  0  0  0  0  0  0  0  0  0  0  0
    6.9410    5.0290  -13.4070 C   0  0  1  0  0  0  0  0  0  0  0  0
    8.1840    3.8200  -12.6520 C   0  0  0  0  0  0  0  0  0  0  0  0
   10.1850    6.3250   -6.0760 C   0  0  0  0  0  0  0  0  0  0  0  0
    9.6660    6.5010   -7.4300 C   0  0  1  0  0  0  0  0  0  0  0  0
    7.2890    7.7780  -13.0780 C   0  0  0  0  0  0  0  0  0  0  0  0
    5.4780    5.1430  -13.9400 C   0  0  0  0  0  0  0  0  0  0  0  0
   10.7320    6.2160   -8.4660 C   0  0  2  0  0  0  0  0  0  0  0  0
   10.6540    6.5460   -3.7930 F   0  0  0  0  0  0  0  0  0  0  0  0
    9.4670    8.0510   -9.9350 C   0  0  0  0  0  0  0  0  0  0  0  0
   10.6100    7.6310   -9.0630 C   0  0  1  0  0  0  0  0  0  0  0  0
  1  4  1  0
  6  5  2  0
  7  8  1  0
  7 13  2  0
  8 12  2  0
  9  2  1  6
  9 14  1  0
 10 22  1  0
 11  1  1  0
 12  5  1  0
 13  6  1  0
 14 21  1  6
 14 32  1  0
 15 16  1  0
 16  7  1  0
 17 28  1  6
 17  9  1  0
 18 10  1  0
 19 14  1  0
 22 16  1  1
 23 15  2  0
 24 20  1  1
 24  1  1  0
 24 17  1  0
 25  2  1  0
 26 22  1  0
 27  3  1  6
 27 26  1  0
 28 19  1  0
 29 24  1  0
 29  1  1  0
 30  3  1  6
 30 27  1  0
 31  8  1  0
 33 32  1  1
 33 30  1  0
 33 18  1  0
M  END
>  <GenAI_Model>  (42) 
DiffSBDD

>  <Protein>  (42) 
generic_title2

>  <num_sample>  (42) 
50

$$$$
DiffSBDD_42
     RDKit          3D

 25 28  0  0  0  0  0  0  0  0999 V2000
   11.6540    7.0620   -6.1930 C   0  0  2  0  0  0  0  0  0  0  0  0
   12.0740    7.1340   -3.5680 C   0  0  2  0  0  0  0  0  0  0  0  0
    7.9720    6.0790  -14.6010 O   0  0  0  0  0  0  0  0  0  0  0  0
    5.8630    5.7420  -13.3430 C   0  0  0  0  0  0  0  0  0  0  0  0
   12.1680    8.6520   -3.2610 C   0  0  2  0  0  0  0  0  0  0  0  0
    7.3850    7.8920  -12.8690 C   0  0  0  0  0  0  0  0  0  0  0  0
    7.4940    4.9720  -10.0020 C   0  0  0  0  0  0  0  0  0  0  0  0
   11.4790    9.1270   -5.5590 C   0  0  0  0  0  0  0  0  0  0  0  0
   12.4590    9.1500   -1.7070 C   0  0  0  0  0  0  0  0  0  0  0  0
    9.3860    7.6810   -7.6080 C   0  0  0  0  0  0  0  0  0  0  0  0
   11.7350    9.7920   -4.1200 C   0  0  0  0  0  0  0  0  0  0  0  0
    6.6060    4.2470  -11.1920 C   0  0  0  0  0  0  0  0  0  0  0  0
    9.4180    6.2400   -9.5040 N   0  0  0  0  0  0  0  0  0  0  0  0
   13.1790    8.0000   -1.0400 C   0  0  0  0  0  0  0  0  0  0  0  0
   10.9890    6.0550   -7.1930 C   0  0  0  0  0  0  0  0  0  0  0  0
   12.5900    6.5700   -1.2160 C   0  0  0  0  0  0  0  0  0  0  0  0
    9.7580    5.7190  -11.1950 C   0  0  2  0  0  0  0  0  0  0  0  0
   12.6950    6.0940   -2.6420 C   0  0  0  0  0  0  0  0  0  0  0  0
    7.5940    6.2750  -13.2020 S   0  0  2  0  0  0  0  0  0  0  0  0
    9.0320    6.0540  -12.5130 O   0  0  0  0  0  0  0  0  0  0  0  0
    9.9040    6.6360   -8.3490 C   0  0  2  0  0  0  0  0  0  0  0  0
    5.7050    5.1460  -11.8490 C   0  0  0  0  0  0  0  0  0  0  0  0
   11.4640    6.5910   -4.8250 C   0  0  0  0  0  0  0  0  0  0  0  0
   12.1820    8.3900   -5.9700 C   0  0  0  0  0  0  0  0  0  0  0  0
    8.9640    4.8310  -10.0060 C   0  0  2  0  0  0  0  0  0  0  0  0
  1 15  1  6
  1 24  1  0
  1 23  1  0
  2 23  1  6
  2  5  1  0
  2 18  1  0
  3 19  1  0
  4 19  1  0
  4 22  1  0
  5 11  1  1
  5  9  1  0
  8 11  1  0
  9 14  1  0
 12  7  1  0
 13 21  1  0
 16 14  1  0
 17 20  1  6
 17 25  1  0
 17 13  1  0
 18 16  1  0
 19  6  1  6
 19 20  1  0
 21 10  1  1
 21 15  1  0
 22 12  1  0
 24  8  1  0
 25  7  1  6
 25 13  1  0
M  END
>  <GenAI_Model>  (43) 
DiffSBDD

>  <Protein>  (43) 
generic_title2

>  <num_sample>  (43) 
50

$$$$
DiffSBDD_43
     RDKit          3D

 36 40  0  0  0  0  0  0  0  0999 V2000
   10.2530    7.5320   -7.6460 N   0  0  0  0  0  0  0  0  0  0  0  0
   11.3020    7.5470   -6.8840 C   0  0  1  0  0  0  0  0  0  0  0  0
    6.3520    7.6540  -15.1530 C   0  0  0  0  0  0  0  0  0  0  0  0
   12.0750    7.4130   -3.9140 C   0  0  1  0  0  0  0  0  0  0  0  0
    7.4450    4.9390  -11.2560 C   0  0  2  0  0  0  0  0  0  0  0  0
    8.7710    5.7650  -14.7690 Cl  0  0  0  0  0  0  0  0  0  0  0  0
   12.3440    6.2440   -1.6730 C   0  0  0  0  0  0  0  0  0  0  0  0
    6.0360    5.1210  -14.8860 C   0  0  0  0  0  0  0  0  0  0  0  0
   11.5680    8.5580   -4.5770 N   0  0  0  0  0  0  0  0  0  0  0  0
    8.7140    4.6280  -10.2710 C   0  0  0  0  0  0  0  0  0  0  0  0
   11.7780    7.4550   -2.3270 C   0  0  0  0  0  0  0  0  0  0  0  0
    9.0880    7.9600   -7.3870 O   0  0  0  0  0  0  0  0  0  0  0  0
    7.3370    7.7800  -13.8240 C   0  0  1  0  0  0  0  0  0  0  0  0
    8.8380    5.4620   -7.9330 C   0  0  0  0  0  0  0  0  0  0  0  0
   12.0150    8.8650   -1.7850 C   0  0  0  0  0  0  0  0  0  0  0  0
    7.4860    8.8430  -12.6850 C   0  0  0  0  0  0  0  0  0  0  0  0
    6.6230    5.1400  -13.4660 C   0  0  1  0  0  0  0  0  0  0  0  0
    8.6590    3.5040  -13.0570 O   0  0  0  0  0  0  0  0  0  0  0  0
    6.4330    2.8800  -12.4870 C   0  0  0  0  0  0  0  0  0  0  0  0
   10.5340    7.1900   -8.8440 C   0  0  0  0  0  0  0  0  0  0  0  0
    7.3890    4.0190  -12.5750 C   0  0  1  0  0  0  0  0  0  0  0  0
    5.3900    6.5110  -15.2250 C   0  0  0  0  0  0  0  0  0  0  0  0
   11.1360    8.6070   -5.7930 C   0  0  0  0  0  0  0  0  0  0  0  0
    7.6380    6.3300  -13.2990 C   0  0  1  0  0  0  0  0  0  0  0  0
   11.4860    9.7830   -3.9090 C   0  0  0  0  0  0  0  0  0  0  0  0
    9.0390    5.8810   -9.3710 N   0  0  0  0  0  0  0  0  0  0  0  0
    8.0180    6.2310  -11.8910 O   0  0  0  0  0  0  0  0  0  0  0  0
   11.0830    6.3040   -6.0410 C   0  0  0  0  0  0  0  0  0  0  0  0
   10.8760    6.4410   -1.6660 C   0  0  0  0  0  0  0  0  0  0  0  0
    6.1670    5.1410  -10.6960 O   0  0  0  0  0  0  0  0  0  0  0  0
   11.7980    9.9680   -2.6040 N   0  0  0  0  0  0  0  0  0  0  0  0
   11.8260    6.1870   -4.7990 C   0  0  0  0  0  0  0  0  0  0  0  0
   12.6310    8.9780   -0.6090 O   0  0  0  0  0  0  0  0  0  0  0  0
   12.8000    7.5240   -7.0310 C   0  0  0  0  0  0  0  0  0  0  0  0
    9.8840    6.9270  -10.0250 C   0  0  0  0  0  0  0  0  0  0  0  0
   11.2150   10.7880   -4.6950 O   0  0  0  0  0  0  0  0  0  0  0  0
  1 12  1  0
  1  2  1  0
  2 34  1  6
  2 28  1  0
  2 23  1  0
  3 13  1  0
  4 32  1  6
  4 11  1  0
  5 30  1  1
  5 10  1  0
  7 29  1  0
  9  4  1  0
  9 25  1  0
 10 26  1  0
 11 15  1  0
 11  7  1  0
 11 29  1  0
 13 24  1  0
 13 16  1  1
 15 33  2  0
 17  8  1  6
 17 24  1  0
 17 21  1  0
 18 21  1  0
 20  1  1  0
 21 19  1  1
 21  5  1  0
 22  3  1  0
 22  8  1  0
 23  9  1  0
 24  6  1  6
 24 27  1  0
 25 31  1  0
 26 14  1  0
 27  5  1  0
 28 32  1  0
 31 15  1  0
 35 26  1  0
 35 20  1  0
 36 25  2  0
M  END
>  <GenAI_Model>  (44) 
DiffSBDD

>  <Protein>  (44) 
generic_title2

>  <num_sample>  (44) 
50

$$$$
DiffSBDD_44
     RDKit          3D

 34 36  0  0  0  0  0  0  0  0999 V2000
    8.6970    6.0210  -13.8800 C   0  0  0  0  0  0  0  0  0  0  0  0
   10.5300    7.0340   -7.3440 C   0  0  0  0  0  0  0  0  0  0  0  0
    5.6720    6.0470  -13.9980 O   0  0  0  0  0  0  0  0  0  0  0  0
    8.2850    5.6340  -14.9930 O   0  0  0  0  0  0  0  0  0  0  0  0
   11.5190    7.3940   -9.3450 O   0  0  0  0  0  0  0  0  0  0  0  0
    9.5220    7.3900  -11.5250 C   0  0  2  0  0  0  0  0  0  0  0  0
    6.3530    6.8570  -13.0720 C   0  0  0  0  0  0  0  0  0  0  0  0
   12.0420    8.1040   -3.4780 C   0  0  0  0  0  0  0  0  0  0  0  0
    7.9620    5.3810   -7.0020 C   0  0  0  0  0  0  0  0  0  0  0  0
   10.6080    6.9370  -12.4610 C   0  0  0  0  0  0  0  0  0  0  0  0
    8.5990    4.7850   -9.4610 C   0  0  0  0  0  0  0  0  0  0  0  0
    5.4250    5.2050  -10.7330 C   0  0  0  0  0  0  0  0  0  0  0  0
    8.2260    7.2520  -11.7340 O   0  0  0  0  0  0  0  0  0  0  0  0
    6.7720    4.3950  -11.1160 C   0  0  1  0  0  0  0  0  0  0  0  0
   10.0330    5.9580  -13.4290 C   0  0  1  0  0  0  0  0  0  0  0  0
   12.0400   10.7010   -2.7050 N   0  0  0  0  0  0  0  0  0  0  0  0
   12.8660    7.9180   -1.5070 F   0  0  0  0  0  0  0  0  0  0  0  0
   10.7430    8.4050   -6.8460 C   0  0  0  0  0  0  0  0  0  0  0  0
   10.9210    6.3240   -5.5590 S   0  0  0  0  0  0  0  0  0  0  0  0
   10.8490    4.9750  -13.7660 O   0  0  0  0  0  0  0  0  0  0  0  0
   12.4100    7.3090   -2.5450 C   0  0  0  0  0  0  0  0  0  0  0  0
    7.7470    4.8780  -12.1040 C   0  0  1  0  0  0  0  0  0  0  0  0
    8.8880    5.3920   -8.2550 C   0  0  0  0  0  0  0  0  0  0  0  0
   12.0770    9.1860   -3.0410 C   0  0  0  0  0  0  0  0  0  0  0  0
   11.4800    7.6190   -4.7710 C   0  0  0  0  0  0  0  0  0  0  0  0
   11.3000    8.6660   -5.5890 N   0  0  0  0  0  0  0  0  0  0  0  0
    7.4420    3.8250   -9.7840 C   0  0  0  0  0  0  0  0  0  0  0  0
   12.3720    6.0850   -2.6540 F   0  0  0  0  0  0  0  0  0  0  0  0
   10.2680    7.3920   -9.1960 C   0  0  0  0  0  0  0  0  0  0  0  0
    9.7200    8.3170  -10.1860 C   0  0  0  0  0  0  0  0  0  0  0  0
    6.5260    8.1960  -13.6270 O   0  0  0  0  0  0  0  0  0  0  0  0
    8.3270    3.9150  -12.8570 F   0  0  0  0  0  0  0  0  0  0  0  0
    9.8710    6.4900   -8.2250 N   0  0  0  0  0  0  0  0  0  0  0  0
    7.6860    6.3000  -12.7790 C   0  0  2  0  0  0  0  0  0  0  0  0
  1 15  1  0
  1 34  1  0
  2 18  2  0
  2 19  1  0
  3  7  1  0
  4  1  2  0
  5 29  2  0
  6 10  1  6
  6 30  1  0
  8 24  1  0
  8 21  2  3
 11 23  2  0
 13  6  1  0
 14 12  1  1
 14 27  1  0
 15 20  1  1
 15 10  1  0
 18 26  1  0
 19 25  1  0
 21 17  1  0
 22 32  1  6
 22 14  1  0
 23 33  1  0
 23  9  1  0
 24 16  1  0
 25  8  1  0
 26 25  2  0
 27 11  1  0
 28 21  1  0
 29 33  1  0
 30 29  1  0
 31  7  1  0
 33  2  1  0
 34  7  1  6
 34 22  1  0
 34 13  1  0
M  END
>  <GenAI_Model>  (45) 
DiffSBDD

>  <Protein>  (45) 
generic_title2

>  <num_sample>  (45) 
50

$$$$
DiffSBDD_45
     RDKit          3D

 27 31  0  0  0  0  0  0  0  0999 V2000
   11.8400    9.2890   -5.3690 C   0  0  0  0  0  0  0  0  0  0  0  0
    6.8650    4.3680  -14.2070 C   0  0  1  0  0  0  0  0  0  0  0  0
   11.6330    7.8930  -10.8190 C   0  0  0  0  0  0  0  0  0  0  0  0
   11.1500    7.7130   -9.4190 C   0  0  0  0  0  0  0  0  0  0  0  0
    8.1430    5.4010  -14.5860 C   0  0  0  0  0  0  0  0  0  0  0  0
    8.7660    5.9570  -13.3320 C   0  0  0  0  0  0  0  0  0  0  0  0
   10.7900    7.6380   -6.9530 C   0  0  0  0  0  0  0  0  0  0  0  0
   11.2460    7.9190   -5.4750 C   0  0  0  0  0  0  0  0  0  0  0  0
    6.5340    3.9110  -12.9500 C   0  0  1  0  0  0  0  0  0  0  0  0
    9.3020    6.3360   -8.4190 C   0  0  0  0  0  0  0  0  0  0  0  0
    9.8390    6.6310  -11.1100 N   0  0  0  0  0  0  0  0  0  0  0  0
    8.2460    4.6600  -11.2890 C   0  0  0  0  0  0  0  0  0  0  0  0
   13.6120    8.4060   -0.8870 O   0  0  0  0  0  0  0  0  0  0  0  0
    9.6880    6.7530   -7.1740 C   0  0  0  0  0  0  0  0  0  0  0  0
   12.5630    8.8940   -3.1510 O   0  0  0  0  0  0  0  0  0  0  0  0
   11.1270    7.0170   -4.3910 C   0  0  0  0  0  0  0  0  0  0  0  0
    6.8320    4.3010  -11.5170 C   0  0  0  0  0  0  0  0  0  0  0  0
   12.9160    5.8120   -1.9020 F   0  0  0  0  0  0  0  0  0  0  0  0
   11.7760    9.7800   -3.9080 C   0  0  0  0  0  0  0  0  0  0  0  0
    8.6470    6.1020  -11.7810 C   0  0  2  0  0  0  0  0  0  0  0  0
   10.0290    6.7970   -9.6390 C   0  0  0  0  0  0  0  0  0  0  0  0
    5.5520    4.7370  -13.6140 O   0  0  0  0  0  0  0  0  0  0  0  0
   12.0140    6.8770   -1.9620 C   0  0  1  0  0  0  0  0  0  0  0  0
   12.2320    7.8850   -0.7970 C   0  0  0  0  0  0  0  0  0  0  0  0
   12.2960    7.4970   -3.3060 C   0  0  2  0  0  0  0  0  0  0  0  0
   11.4710    8.1350   -8.0500 C   0  0  0  0  0  0  0  0  0  0  0  0
   10.9810    7.2530  -11.7000 N   0  0  0  0  0  0  0  0  0  0  0  0
  1 19  1  0
  2  5  1  1
  2 22  1  0
  2  9  1  0
  3  4  1  0
  4 26  1  0
  5  6  1  0
  8  7  1  0
  8  1  1  0
  8 16  1  0
  9 17  1  1
 10 14  2  0
 11 21  1  0
 13 24  1  0
 14  7  1  0
 25 16  1  6
 17 12  1  0
 19 15  1  0
 20  6  1  0
 20 12  1  0
 20 11  1  1
 21  4  2  0
 21 10  1  0
 22  9  1  0
 23 18  1  1
 23 24  1  0
 25 15  1  0
 25 23  1  0
 26  7  2  0
 27 11  1  0
 27  3  2  0
M  END
>  <GenAI_Model>  (46) 
DiffSBDD

>  <Protein>  (46) 
generic_title2

>  <num_sample>  (46) 
50

$$$$
DiffSBDD_46
     RDKit          3D

 27 30  0  0  0  0  0  0  0  0999 V2000
   12.2300    7.7070   -8.4550 O   0  0  0  0  0  0  0  0  0  0  0  0
    9.4800    6.0640   -7.3660 C   0  0  0  0  0  0  0  0  0  0  0  0
    6.1490    3.4590  -13.7320 C   0  0  0  0  0  0  0  0  0  0  0  0
   12.4300    8.3540   -1.2870 C   0  0  0  0  0  0  0  0  0  0  0  0
   11.3290    9.4020   -5.9790 C   0  0  0  0  0  0  0  0  0  0  0  0
   11.5630    9.8370   -4.6650 C   0  0  0  0  0  0  0  0  0  0  0  0
    8.6480    6.4470  -11.6660 N   0  0  0  0  0  0  0  0  0  0  0  0
    7.9060    4.6980  -10.2380 C   0  0  0  0  0  0  0  0  0  0  0  0
    9.2070    7.8540  -11.6640 C   0  0  0  0  0  0  0  0  0  0  0  0
   10.0760    6.9290   -8.2890 N   0  0  0  0  0  0  0  0  0  0  0  0
    6.4780    7.1620  -13.3240 C   0  0  0  0  0  0  0  0  0  0  0  0
   11.7800    7.5310   -3.9090 C   0  0  0  0  0  0  0  0  0  0  0  0
   11.3760    8.0670   -6.2980 C   0  0  0  0  0  0  0  0  0  0  0  0
    8.8120    4.6880   -7.5540 C   0  0  0  0  0  0  0  0  0  0  0  0
    5.6140    4.8010  -13.1600 C   0  0  1  0  0  0  0  0  0  0  0  0
   11.8340    8.9150   -3.6460 C   0  0  0  0  0  0  0  0  0  0  0  0
    9.7440    7.0450   -9.5880 C   0  0  0  0  0  0  0  0  0  0  0  0
    6.2890    5.1960  -11.8750 C   0  0  0  0  0  0  0  0  0  0  0  0
   11.5620    7.1630   -5.2250 C   0  0  0  0  0  0  0  0  0  0  0  0
   11.2360    7.6540   -7.7790 C   0  0  0  0  0  0  0  0  0  0  0  0
   12.2470    9.3190   -2.2980 C   0  0  0  0  0  0  0  0  0  0  0  0
    5.9280    5.9530  -14.1220 C   0  0  0  0  0  0  0  0  0  0  0  0
   10.2730    7.9990  -10.6000 C   0  0  0  0  0  0  0  0  0  0  0  0
    7.2410    6.4040  -12.2270 C   0  0  1  0  0  0  0  0  0  0  0  0
   12.2320    7.0030   -1.5910 C   0  0  0  0  0  0  0  0  0  0  0  0
    8.7400    6.0160  -10.2650 C   0  0  0  0  0  0  0  0  0  0  0  0
   11.8620    6.5740   -2.8530 C   0  0  0  0  0  0  0  0  0  0  0  0
  1 20  2  0
  5  6  2  0
  6 16  1  0
  7  9  1  0
  7 26  1  0
  9 23  1  0
 10 20  1  0
 10  2  1  0
 12 16  1  0
 12 27  2  0
 13  5  1  0
 13 19  2  0
 14  2  1  0
 15  3  1  6
 15 18  1  0
 16 21  2  0
 17 10  1  0
 19 12  1  0
 20 13  1  0
 21  4  1  0
 22 11  1  0
 22 15  1  0
 23 17  1  0
 24 11  1  0
 24 18  1  0
 24  7  1  6
 25  4  2  0
 26  8  1  0
 26 17  2  0
 27 25  1  0
M  END
>  <GenAI_Model>  (47) 
DiffSBDD

>  <Protein>  (47) 
generic_title2

>  <num_sample>  (47) 
50

$$$$
DiffSBDD_47
     RDKit          3D

 12 11  0  0  0  0  0  0  0  0999 V2000
   11.1580    6.9160   -6.1890 C   0  0  0  0  0  0  0  0  0  0  0  0
   11.4720    6.8010   -4.8620 C   0  0  0  0  0  0  0  0  0  0  0  0
   11.7530    6.6250   -3.5770 C   0  0  0  0  0  0  0  0  0  0  0  0
   10.8380    8.0430   -7.1650 C   0  0  1  0  0  0  0  0  0  0  0  0
    7.4650    5.1950  -11.2630 C   0  0  0  0  0  0  0  0  0  0  0  0
    9.6930    7.5360   -8.0440 C   0  0  0  0  0  0  0  0  0  0  0  0
    8.2000    6.0780  -10.4260 N   0  0  0  0  0  0  0  0  0  0  0  0
    7.2190    5.8000  -12.6770 C   0  0  0  0  0  0  0  0  0  0  0  0
    9.7020    5.9880   -8.2270 C   0  0  0  0  0  0  0  0  0  0  0  0
   12.0730    7.3500   -2.4210 C   0  0  0  0  0  0  0  0  0  0  0  0
    8.7130    5.4300   -9.1280 C   0  0  0  0  0  0  0  0  0  0  0  0
   10.6900    9.2140   -6.2550 O   0  0  0  0  0  0  0  0  0  0  0  0
  1  2  2  0
  2  3  2  0
  3 10  1  0
  4 12  1  1
  4  1  1  0
  5  7  1  0
  6  4  1  0
  7 11  1  0
  8  5  1  0
  9  6  1  0
 11  9  1  0
M  END
>  <GenAI_Model>  (48) 
DiffSBDD

>  <Protein>  (48) 
generic_title2

>  <num_sample>  (48) 
50

$$$$
DiffSBDD_48
     RDKit          3D

 24 24  0  0  0  0  0  0  0  0999 V2000
   10.3580    7.0850   -7.9790 C   0  0  2  0  0  0  0  0  0  0  0  0
   12.9930    8.5360   -1.5780 C   0  0  0  0  0  0  0  0  0  0  0  0
   10.7970    7.2790   -6.2130 C   0  0  0  0  0  0  0  0  0  0  0  0
   11.8250    7.5560   -4.1250 C   0  0  0  0  0  0  0  0  0  0  0  0
   13.9260    8.0190  -10.0590 O   0  0  0  0  0  0  0  0  0  0  0  0
    7.9400    4.5930   -8.8790 O   0  0  0  0  0  0  0  0  0  0  0  0
   12.2160    5.3210   -3.2750 F   0  0  0  0  0  0  0  0  0  0  0  0
   11.6140    7.7270  -10.1090 C   0  0  0  0  0  0  0  0  0  0  0  0
   11.7630    8.9520   -3.6790 C   0  0  0  0  0  0  0  0  0  0  0  0
   10.0990    5.6400   -8.1080 C   0  0  0  0  0  0  0  0  0  0  0  0
    9.0770    5.0540   -9.1360 C   0  0  0  0  0  0  0  0  0  0  0  0
   11.2460    6.5130   -5.6460 C   0  0  0  0  0  0  0  0  0  0  0  0
   12.8240    7.8750  -10.8880 C   0  0  0  0  0  0  0  0  0  0  0  0
   12.5350    9.2710   -6.5750 C   0  0  0  0  0  0  0  0  0  0  0  0
   12.8860    7.1590   -1.9140 C   0  0  0  0  0  0  0  0  0  0  0  0
    9.0540    5.7470  -10.6970 C   0  0  0  0  0  0  0  0  0  0  0  0
   12.7300    7.5190  -12.2320 O   0  0  0  0  0  0  0  0  0  0  0  0
   11.7060    7.4610   -8.7570 O   0  0  0  0  0  0  0  0  0  0  0  0
    8.7710    7.0700  -10.1250 O   0  0  0  0  0  0  0  0  0  0  0  0
   11.1670    9.2500   -6.9760 C   0  0  0  0  0  0  0  0  0  0  0  0
   10.3440    8.6570   -6.0620 O   0  0  0  0  0  0  0  0  0  0  0  0
   13.5080    9.0130   -0.5640 F   0  0  0  0  0  0  0  0  0  0  0  0
   12.3910    9.4360   -2.5240 C   0  0  0  0  0  0  0  0  0  0  0  0
   12.2510    6.6930   -2.9970 C   0  0  0  0  0  0  0  0  0  0  0  0
  1 10  1  1
  1  3  1  0
  2 22  1  0
  3 21  1  0
  3 12  1  0
  4  9  1  0
  4 24  2  0
  7 24  1  0
  8 18  1  0
  9 23  2  0
 11  6  2  0
 11 10  1  0
 12  4  1  0
 13  8  1  0
 13  5  1  0
 15  2  2  0
 16 19  1  0
 16 11  1  0
 17 13  2  0
 18  1  1  0
 20 14  1  0
 20 21  1  0
 23  2  1  0
 24 15  1  0
M  END
>  <GenAI_Model>  (49) 
DiffSBDD

>  <Protein>  (49) 
generic_title2

>  <num_sample>  (49) 
50

$$$$
