Pocket2Mol_0_num_sample_100
     RDKit          3D

 21 23  0  0  0  0  0  0  0  0999 V2000
   10.0490    6.8160   -7.9430 C   0  0  0  0  0  0  0  0  0  0  0  0
    9.8190    8.1390   -8.0830 C   0  0  0  0  0  0  0  0  0  0  0  0
   10.7020    8.9120   -7.2320 N   0  0  0  0  0  0  0  0  0  0  0  0
   11.4200    8.4590   -6.1770 C   0  0  0  0  0  0  0  0  0  0  0  0
   12.0580    9.2370   -5.0650 C   0  0  0  0  0  0  0  0  0  0  0  0
   12.0450    8.7070   -3.8670 C   0  0  0  0  0  0  0  0  0  0  0  0
   11.7860    7.3490   -3.8210 C   0  0  0  0  0  0  0  0  0  0  0  0
   11.3090    6.4140   -4.7220 C   0  0  0  0  0  0  0  0  0  0  0  0
   11.2230    7.1020   -5.9770 C   0  0  0  0  0  0  0  0  0  0  0  0
   10.6780    6.2940   -7.0590 N   0  0  0  0  0  0  0  0  0  0  0  0
   12.2420    7.0230   -2.3720 C   0  0  0  0  0  0  0  0  0  0  0  0
   12.6940    8.3250   -1.7540 C   0  0  0  0  0  0  0  0  0  0  0  0
   12.4920    9.2130   -2.7340 O   0  0  0  0  0  0  0  0  0  0  0  0
    9.6213    6.1523   -8.7089 H   0  0  0  0  0  0  0  0  0  0  0  0
    9.0624    8.5726   -8.7535 H   0  0  0  0  0  0  0  0  0  0  0  0
   12.5205   10.2180   -5.2487 H   0  0  0  0  0  0  0  0  0  0  0  0
   11.0503    5.3644   -4.5186 H   0  0  0  0  0  0  0  0  0  0  0  0
   11.4043    6.6015   -1.7971 H   0  0  0  0  0  0  0  0  0  0  0  0
   13.0551    6.2822   -2.3711 H   0  0  0  0  0  0  0  0  0  0  0  0
   12.0912    8.5715   -0.8675 H   0  0  0  0  0  0  0  0  0  0  0  0
   13.7363    8.2980   -1.4034 H   0  0  0  0  0  0  0  0  0  0  0  0
  1  2  2  0
  2  3  1  0
  3  4  2  0
  4  5  1  0
  5  6  2  0
  6  7  1  0
  7  8  2  0
  8  9  1  0
  9 10  2  0
  7 11  1  0
 11 12  1  0
 12 13  1  0
 10  1  1  0
  9  4  1  0
 13  6  1  0
  1 14  1  0
  2 15  1  0
  5 16  1  0
  8 17  1  0
 11 18  1  0
 11 19  1  0
 12 20  1  0
 12 21  1  0
M  END

>  <ID>
Pocket2Mol_0_num_sample_100

>  <docking_score>
-7.393

$$$$
Pocket2Mol_10_num_sample_100
     RDKit          3D

 12 12  0  0  0  0  0  0  0  0999 V2000
   11.2960    6.5450   -4.8250 C   0  0  0  0  0  0  0  0  0  0  0  0
   11.7940    7.3130   -3.7720 C   0  0  0  0  0  0  0  0  0  0  0  0
   11.9800    6.8560   -2.4560 C   0  0  0  0  0  0  0  0  0  0  0  0
   12.5450    7.9580   -1.6600 C   0  0  0  0  0  0  0  0  0  0  0  0
   12.4850    9.0040   -2.5230 O   0  0  0  0  0  0  0  0  0  0  0  0
   12.1240    8.7250   -3.6320 C   0  0  0  0  0  0  0  0  0  0  0  0
   10.7393    5.6864   -4.4213 H   0  0  0  0  0  0  0  0  0  0  0  0
   10.6245    7.1602   -5.4419 H   0  0  0  0  0  0  0  0  0  0  0  0
   12.1316    6.1829   -5.4419 H   0  0  0  0  0  0  0  0  0  0  0  0
   11.7439    5.8479   -2.0845 H   0  0  0  0  0  0  0  0  0  0  0  0
   12.9210    7.9386   -0.6264 H   0  0  0  0  0  0  0  0  0  0  0  0
   12.0502    9.4541   -4.4523 H   0  0  0  0  0  0  0  0  0  0  0  0
  1  2  1  0
  2  3  1  0
  3  4  2  0
  4  5  1  0
  5  6  1  0
  6  2  2  0
  1  7  1  0
  1  8  1  0
  1  9  1  0
  3 10  1  0
  4 11  1  0
  6 12  1  0
M  END

>  <ID>
Pocket2Mol_10_num_sample_100

>  <docking_score>
-4.403

$$$$
Pocket2Mol_11_num_sample_100
     RDKit          3D

 13 12  0  0  0  0  0  0  0  0999 V2000
   12.4040    8.9140   -3.4810 C   0  0  0  0  0  0  0  0  0  0  0  0
   12.7140    8.0420   -2.6480 N   0  0  0  0  0  0  0  0  0  0  0  0
   12.6980    8.3390   -1.3600 C   0  0  0  0  0  0  0  0  0  0  0  0
   11.9620    6.7750   -2.9270 C   0  0  0  0  0  0  0  0  0  0  0  0
   12.0803    9.8245   -2.9555 H   0  0  0  0  0  0  0  0  0  0  0  0
   13.2752    9.1448   -4.1117 H   0  0  0  0  0  0  0  0  0  0  0  0
   11.5827    8.5431   -4.1117 H   0  0  0  0  0  0  0  0  0  0  0  0
   12.7479    7.4123   -0.7694 H   0  0  0  0  0  0  0  0  0  0  0  0
   13.5632    8.9742   -1.1194 H   0  0  0  0  0  0  0  0  0  0  0  0
   11.7695    8.8776   -1.1194 H   0  0  0  0  0  0  0  0  0  0  0  0
   11.6796    6.2993   -1.9762 H   0  0  0  0  0  0  0  0  0  0  0  0
   11.0550    7.0066   -3.5047 H   0  0  0  0  0  0  0  0  0  0  0  0
   12.5997    6.0897   -3.5047 H   0  0  0  0  0  0  0  0  0  0  0  0
  1  2  1  0
  2  3  1  0
  2  4  1  0
  1  5  1  0
  1  6  1  0
  1  7  1  0
  3  8  1  0
  3  9  1  0
  3 10  1  0
  4 11  1  0
  4 12  1  0
  4 13  1  0
M  END

>  <ID>
Pocket2Mol_11_num_sample_100

>  <docking_score>
-2.458

$$$$
Pocket2Mol_12_num_sample_100
     RDKit          3D

 14 14  0  0  0  0  0  0  0  0999 V2000
   11.2900    6.5540   -4.8770 C   0  0  0  0  0  0  0  0  0  0  0  0
   11.7830    7.3590   -3.8500 C   0  0  0  0  0  0  0  0  0  0  0  0
   12.1080    8.7760   -3.7570 C   0  0  0  0  0  0  0  0  0  0  0  0
   12.4670    9.0940   -2.6580 O   0  0  0  0  0  0  0  0  0  0  0  0
   12.5300    8.0780   -1.7610 C   0  0  0  0  0  0  0  0  0  0  0  0
   11.9070    6.7780   -2.4790 C   0  0  0  0  0  0  0  0  0  0  0  0
   10.7616    5.6913   -4.4451 H   0  0  0  0  0  0  0  0  0  0  0  0
   10.5939    7.1370   -5.4979 H   0  0  0  0  0  0  0  0  0  0  0  0
   12.1257    6.1989   -5.4979 H   0  0  0  0  0  0  0  0  0  0  0  0
   12.0324    9.4767   -4.6015 H   0  0  0  0  0  0  0  0  0  0  0  0
   13.5758    7.8884   -1.4775 H   0  0  0  0  0  0  0  0  0  0  0  0
   11.9724    8.3266   -0.8459 H   0  0  0  0  0  0  0  0  0  0  0  0
   12.5886    5.9151   -2.4491 H   0  0  0  0  0  0  0  0  0  0  0  0
   10.9873    6.3680   -2.0363 H   0  0  0  0  0  0  0  0  0  0  0  0
  1  2  1  0
  2  3  2  0
  3  4  1  0
  4  5  1  0
  5  6  1  0
  6  2  1  0
  1  7  1  0
  1  8  1  0
  1  9  1  0
  3 10  1  0
  5 11  1  0
  5 12  1  0
  6 13  1  0
  6 14  1  0
M  END

>  <ID>
Pocket2Mol_12_num_sample_100

>  <docking_score>
-4.424

$$$$
Pocket2Mol_13_num_sample_100
     RDKit          3D

 16 16  0  0  0  0  0  0  0  0999 V2000
   11.0730    6.6250   -5.2940 C   0  0  0  0  0  0  0  0  0  0  0  0
   11.7740    7.5510   -4.3990 C   0  0  0  0  0  0  0  0  0  0  0  0
   11.9650    8.8340   -4.3050 C   0  0  0  0  0  0  0  0  0  0  0  0
   12.4540    9.3480   -3.2820 N   0  0  0  0  0  0  0  0  0  0  0  0
   12.6210    8.3680   -2.3750 C   0  0  0  0  0  0  0  0  0  0  0  0
   13.0530    8.3900   -1.0340 N   0  0  0  0  0  0  0  0  0  0  0  0
   12.0890    7.0360   -2.9540 C   0  0  0  0  0  0  0  0  0  0  0  0
   10.5156    5.8887   -4.6963 H   0  0  0  0  0  0  0  0  0  0  0  0
   10.3726    7.1879   -5.9286 H   0  0  0  0  0  0  0  0  0  0  0  0
   11.8048    6.1037   -5.9286 H   0  0  0  0  0  0  0  0  0  0  0  0
   11.6876    9.4810   -5.1503 H   0  0  0  0  0  0  0  0  0  0  0  0
   12.6900   10.3420   -3.1520 H   0  0  0  0  0  0  0  0  0  0  0  0
   13.1140    7.5130   -0.4980 H   0  0  0  0  0  0  0  0  0  0  0  0
   13.3070    9.2840   -0.5910 H   0  0  0  0  0  0  0  0  0  0  0  0
   12.8516    6.2433   -2.9492 H   0  0  0  0  0  0  0  0  0  0  0  0
   11.2547    6.5677   -2.4112 H   0  0  0  0  0  0  0  0  0  0  0  0
  1  2  1  0
  2  3  2  0
  3  4  1  0
  4  5  2  0
  5  6  1  0
  5  7  1  0
  7  2  1  0
  1  8  1  0
  1  9  1  0
  1 10  1  0
  3 11  1  0
  4 12  1  0
  6 13  1  0
  6 14  1  0
  7 15  1  0
  7 16  1  0
M  CHG  1   4   1
M  END

>  <ID>
Pocket2Mol_13_num_sample_100

>  <docking_score>
-5.026

$$$$
Pocket2Mol_14_num_sample_100
     RDKit          3D

 17 17  0  0  0  0  0  0  0  0999 V2000
   12.9460    8.5820   -1.3320 O   0  0  0  0  0  0  0  0  0  0  0  0
   12.9240    8.4690   -2.6280 C   0  0  1  0  0  0  0  0  0  0  0  0
   12.1620    7.1690   -3.0010 C   0  0  0  0  0  0  0  0  0  0  0  0
   11.3530    6.6580   -4.1770 C   0  0  0  0  0  0  0  0  0  0  0  0
   11.5770    7.6180   -5.1750 C   0  0  0  0  0  0  0  0  0  0  0  0
   11.9430    8.7720   -4.6080 O   0  0  0  0  0  0  0  0  0  0  0  0
   11.8290    8.9100   -3.4240 C   0  0  0  0  0  0  0  0  0  0  0  0
   12.4930    9.4210   -1.0660 H   0  0  0  0  0  0  0  0  0  0  0  0
   13.9494    8.8327   -2.7903 H   0  0  0  0  0  0  0  0  0  0  0  0
   12.9468    6.4039   -2.9080 H   0  0  0  0  0  0  0  0  0  0  0  0
   11.2745    7.4272   -2.4046 H   0  0  0  0  0  0  0  0  0  0  0  0
   11.7091    5.6679   -4.4978 H   0  0  0  0  0  0  0  0  0  0  0  0
   10.2867    6.5308   -3.9386 H   0  0  0  0  0  0  0  0  0  0  0  0
   12.3756    7.2697   -5.8464 H   0  0  0  0  0  0  0  0  0  0  0  0
   10.6531    7.7695   -5.7525 H   0  0  0  0  0  0  0  0  0  0  0  0
   11.6801    9.9815   -3.2245 H   0  0  0  0  0  0  0  0  0  0  0  0
   10.9812    8.2714   -3.1352 H   0  0  0  0  0  0  0  0  0  0  0  0
  1  2  1  0
  2  3  1  0
  3  4  1  0
  4  5  1  0
  5  6  1  0
  6  7  1  0
  7  2  1  0
  1  8  1  0
  2  9  1  6
  3 10  1  0
  3 11  1  0
  4 12  1  0
  4 13  1  0
  5 14  1  0
  5 15  1  0
  7 16  1  0
  7 17  1  0
M  END

>  <ID>
Pocket2Mol_14_num_sample_100

>  <docking_score>
-4.254

$$$$
Pocket2Mol_15_num_sample_100
     RDKit          3D

 17 17  0  0  0  0  0  0  0  0999 V2000
   11.3630    6.8220   -4.9180 C   0  0  0  0  0  0  0  0  0  0  0  0
   11.5200    6.6410   -3.3400 C   0  0  0  0  0  0  0  0  0  0  0  0
   12.6180    7.3440   -2.9790 O   0  0  0  0  0  0  0  0  0  0  0  0
   12.5600    8.5540   -2.4100 C   0  0  0  0  0  0  0  0  0  0  0  0
   11.9880    9.4900   -3.2790 C   0  0  0  0  0  0  0  0  0  0  0  0
   12.4430    9.0590   -4.6260 O   0  0  0  0  0  0  0  0  0  0  0  0
   11.4510    8.4020   -5.3900 C   0  0  0  0  0  0  0  0  0  0  0  0
   12.1655    6.2600   -5.4183 H   0  0  0  0  0  0  0  0  0  0  0  0
   10.3678    6.4464   -5.1982 H   0  0  0  0  0  0  0  0  0  0  0  0
   10.6316    7.0321   -2.8226 H   0  0  0  0  0  0  0  0  0  0  0  0
   11.6214    5.5795   -3.0700 H   0  0  0  0  0  0  0  0  0  0  0  0
   11.9512    8.4928   -1.4959 H   0  0  0  0  0  0  0  0  0  0  0  0
   13.5835    8.8780   -2.1704 H   0  0  0  0  0  0  0  0  0  0  0  0
   10.8903    9.4659   -3.2113 H   0  0  0  0  0  0  0  0  0  0  0  0
   12.2857   10.5223   -3.0430 H   0  0  0  0  0  0  0  0  0  0  0  0
   10.4783    8.8895   -5.2279 H   0  0  0  0  0  0  0  0  0  0  0  0
   11.7098    8.4557   -6.4578 H   0  0  0  0  0  0  0  0  0  0  0  0
  1  2  1  0
  2  3  1  0
  3  4  1  0
  4  5  1  0
  5  6  1  0
  6  7  1  0
  7  1  1  0
  1  8  1  0
  1  9  1  0
  2 10  1  0
  2 11  1  0
  4 12  1  0
  4 13  1  0
  5 14  1  0
  5 15  1  0
  7 16  1  0
  7 17  1  0
M  END

>  <ID>
Pocket2Mol_15_num_sample_100

>  <docking_score>
-3.968

$$$$
Pocket2Mol_16_num_sample_100
     RDKit          3D

 19 19  0  0  0  0  0  0  0  0999 V2000
   11.6030    8.5920   -7.9350 C   0  0  0  0  0  0  0  0  0  0  0  0
   10.8820    8.0870   -6.9370 C   0  0  0  0  0  0  0  0  0  0  0  0
    9.5010    8.1520   -7.1470 C   0  0  0  0  0  0  0  0  0  0  0  0
   11.1810    6.6180   -6.5650 C   0  0  0  0  0  0  0  0  0  0  0  0
   11.1470    6.6260   -4.9970 C   0  0  0  0  0  0  0  0  0  0  0  0
   11.5850    7.8450   -4.8760 C   0  0  0  0  0  0  0  0  0  0  0  0
   11.0890    8.5890   -5.8710 O   0  0  0  0  0  0  0  0  0  0  0  0
   12.4387    9.1773   -7.5240 H   0  0  0  0  0  0  0  0  0  0  0  0
   11.9984    7.7724   -8.5530 H   0  0  0  0  0  0  0  0  0  0  0  0
   10.9679    9.2437   -8.5530 H   0  0  0  0  0  0  0  0  0  0  0  0
    8.9833    8.1764   -6.1767 H   0  0  0  0  0  0  0  0  0  0  0  0
    9.2589    9.0625   -7.7147 H   0  0  0  0  0  0  0  0  0  0  0  0
    9.1744    7.2682   -7.7147 H   0  0  0  0  0  0  0  0  0  0  0  0
   10.4123    5.9446   -6.9719 H   0  0  0  0  0  0  0  0  0  0  0  0
   12.1375    6.2581   -6.9720 H   0  0  0  0  0  0  0  0  0  0  0  0
   10.1339    6.4926   -4.5899 H   0  0  0  0  0  0  0  0  0  0  0  0
   11.6980    5.8322   -4.4715 H   0  0  0  0  0  0  0  0  0  0  0  0
   11.2607    8.2587   -3.9097 H   0  0  0  0  0  0  0  0  0  0  0  0
   12.6840    7.8502   -4.9217 H   0  0  0  0  0  0  0  0  0  0  0  0
  1  2  1  0
  2  3  1  0
  2  4  1  0
  4  5  1  0
  5  6  1  0
  6  7  1  0
  7  2  1  0
  1  8  1  0
  1  9  1  0
  1 10  1  0
  3 11  1  0
  3 12  1  0
  3 13  1  0
  4 14  1  0
  4 15  1  0
  5 16  1  0
  5 17  1  0
  6 18  1  0
  6 19  1  0
M  END

>  <ID>
Pocket2Mol_16_num_sample_100

>  <docking_score>
-4.413

$$$$
Pocket2Mol_17_num_sample_100
     RDKit          3D

 12 12  0  0  0  0  0  0  0  0999 V2000
   12.9620    8.6990   -1.2900 O   0  0  0  0  0  0  0  0  0  0  0  0
   12.5210    8.2250   -2.5900 C   0  0  0  0  0  0  0  0  0  0  0  0
   12.0750    6.9670   -2.7730 C   0  0  0  0  0  0  0  0  0  0  0  0
   11.5160    6.7050   -3.9170 C   0  0  0  0  0  0  0  0  0  0  0  0
   11.5170    7.5320   -4.8490 N   0  0  0  0  0  0  0  0  0  0  0  0
   12.0120    8.7650   -4.7200 C   0  0  0  0  0  0  0  0  0  0  0  0
   12.4880    9.1140   -3.5380 C   0  0  0  0  0  0  0  0  0  0  0  0
   12.8420    9.6490   -1.0430 H   0  0  0  0  0  0  0  0  0  0  0  0
   12.1788    6.1990   -1.9924 H   0  0  0  0  0  0  0  0  0  0  0  0
   11.0302    5.7294   -4.0659 H   0  0  0  0  0  0  0  0  0  0  0  0
   12.0232    9.4657   -5.5679 H   0  0  0  0  0  0  0  0  0  0  0  0
   12.8496   10.1374   -3.3594 H   0  0  0  0  0  0  0  0  0  0  0  0
  1  2  1  0
  2  3  2  0
  3  4  1  0
  4  5  2  0
  5  6  1  0
  6  7  2  0
  7  2  1  0
  1  8  1  0
  3  9  1  0
  4 10  1  0
  6 11  1  0
  7 12  1  0
M  END

>  <ID>
Pocket2Mol_17_num_sample_100

>  <docking_score>
-4.567

$$$$
Pocket2Mol_18_num_sample_100
     RDKit          3D

 15 15  0  0  0  0  0  0  0  0999 V2000
   12.4160    7.0260   -2.3730 C   0  0  0  0  0  0  0  0  0  0  0  0
   12.6020    8.3550   -2.3120 C   0  0  0  0  0  0  0  0  0  0  0  0
   12.0660    9.2130   -3.1860 O   0  0  0  0  0  0  0  0  0  0  0  0
   12.2310    9.0410   -4.3600 C   0  0  0  0  0  0  0  0  0  0  0  0
   11.2920    8.1920   -5.0120 C   0  0  0  0  0  0  0  0  0  0  0  0
   11.6660    6.7630   -4.4700 O   0  0  0  0  0  0  0  0  0  0  0  0
   11.5520    6.6780   -3.0400 C   0  0  0  0  0  0  0  0  0  0  0  0
   13.0511    6.3188   -1.8193 H   0  0  0  0  0  0  0  0  0  0  0  0
   13.2272    8.7579   -1.5016 H   0  0  0  0  0  0  0  0  0  0  0  0
   12.1912   10.0243   -4.8515 H   0  0  0  0  0  0  0  0  0  0  0  0
   13.2000    8.5279   -4.4476 H   0  0  0  0  0  0  0  0  0  0  0  0
   10.2608    8.4605   -4.7388 H   0  0  0  0  0  0  0  0  0  0  0  0
   11.3341    8.2629   -6.1089 H   0  0  0  0  0  0  0  0  0  0  0  0
   10.6723    7.2742   -2.7561 H   0  0  0  0  0  0  0  0  0  0  0  0
   11.5116    5.5945   -2.8547 H   0  0  0  0  0  0  0  0  0  0  0  0
  1  2  2  0
  2  3  1  0
  3  4  1  0
  4  5  1  0
  5  6  1  0
  6  7  1  0
  7  1  1  0
  1  8  1  0
  2  9  1  0
  4 10  1  0
  4 11  1  0
  5 12  1  0
  5 13  1  0
  7 14  1  0
  7 15  1  0
M  END

>  <ID>
Pocket2Mol_18_num_sample_100

>  <docking_score>
-4.06

$$$$
Pocket2Mol_19_num_sample_100
     RDKit          3D

 13 13  0  0  0  0  0  0  0  0999 V2000
   12.6600    8.7250   -1.0600 N   0  0  0  0  0  0  0  0  0  0  0  0
   12.3410    8.2790   -2.4040 C   0  0  0  0  0  0  0  0  0  0  0  0
   11.9880    7.0050   -2.6650 C   0  0  0  0  0  0  0  0  0  0  0  0
   11.5280    6.7570   -3.8550 C   0  0  0  0  0  0  0  0  0  0  0  0
   11.5410    7.6190   -4.7530 N   0  0  0  0  0  0  0  0  0  0  0  0
   12.0110    8.7720   -4.5610 C   0  0  0  0  0  0  0  0  0  0  0  0
   12.2270    9.0900   -3.4940 C   0  0  0  0  0  0  0  0  0  0  0  0
   13.2760    8.1560   -0.4610 H   0  0  0  0  0  0  0  0  0  0  0  0
   12.2710    9.6100   -0.7060 H   0  0  0  0  0  0  0  0  0  0  0  0
   12.0845    6.2132   -1.9075 H   0  0  0  0  0  0  0  0  0  0  0  0
   11.1169    5.7605   -4.0741 H   0  0  0  0  0  0  0  0  0  0  0  0
   12.2063    9.4509   -5.4042 H   0  0  0  0  0  0  0  0  0  0  0  0
   12.3586   10.1681   -3.3199 H   0  0  0  0  0  0  0  0  0  0  0  0
  1  2  1  0
  2  3  2  0
  3  4  1  0
  4  5  2  0
  5  6  1  0
  6  7  2  0
  7  2  1  0
  1  8  1  0
  1  9  1  0
  3 10  1  0
  4 11  1  0
  6 12  1  0
  7 13  1  0
M  END

>  <ID>
Pocket2Mol_19_num_sample_100

>  <docking_score>
-4.552

$$$$
Pocket2Mol_1_num_sample_100
     RDKit          3D

 10 10  0  0  0  0  0  0  0  0999 V2000
   12.6690    8.1520   -1.9080 C   0  0  0  0  0  0  0  0  0  0  0  0
   12.5070    8.7430   -3.0540 C   0  0  0  0  0  0  0  0  0  0  0  0
   11.9660    8.1660   -4.0160 N   0  0  0  0  0  0  0  0  0  0  0  0
   11.7120    6.9000   -3.6390 C   0  0  0  0  0  0  0  0  0  0  0  0
   12.2280    6.6490   -2.3160 C   0  0  0  0  0  0  0  0  0  0  0  0
   13.0072    8.5555   -0.9422 H   0  0  0  0  0  0  0  0  0  0  0  0
   12.8564    9.7787   -3.1774 H   0  0  0  0  0  0  0  0  0  0  0  0
   11.1832    6.1580   -4.2553 H   0  0  0  0  0  0  0  0  0  0  0  0
   11.4540    6.2520   -1.6427 H   0  0  0  0  0  0  0  0  0  0  0  0
   13.0285    5.8965   -2.2619 H   0  0  0  0  0  0  0  0  0  0  0  0
  1  2  2  0
  2  3  1  0
  3  4  2  0
  4  5  1  0
  5  1  1  0
  1  6  1  0
  2  7  1  0
  4  8  1  0
  5  9  1  0
  5 10  1  0
M  END

>  <ID>
Pocket2Mol_1_num_sample_100

>  <docking_score>
-3.688

$$$$
Pocket2Mol_20_num_sample_100
     RDKit          3D

 12 12  0  0  0  0  0  0  0  0999 V2000
   13.1490    8.5480   -1.2520 O   0  0  0  0  0  0  0  0  0  0  0  0
   12.4430    8.3040   -2.6030 C   0  0  0  0  0  0  0  0  0  0  0  0
   12.0270    6.9940   -2.6170 C   0  0  0  0  0  0  0  0  0  0  0  0
   11.5910    6.6660   -3.8640 C   0  0  0  0  0  0  0  0  0  0  0  0
   11.4580    7.6680   -4.9400 C   0  0  0  0  0  0  0  0  0  0  0  0
   11.8760    8.9090   -4.6640 N   0  0  0  0  0  0  0  0  0  0  0  0
   12.3940    9.1780   -3.5640 C   0  0  0  0  0  0  0  0  0  0  0  0
   14.1030    8.8120   -1.2320 H   0  0  0  0  0  0  0  0  0  0  0  0
   12.0439    6.3143   -1.7523 H   0  0  0  0  0  0  0  0  0  0  0  0
   11.3289    5.6192   -4.0772 H   0  0  0  0  0  0  0  0  0  0  0  0
   11.0356    7.4071   -5.9216 H   0  0  0  0  0  0  0  0  0  0  0  0
   12.8202   10.1790   -3.4017 H   0  0  0  0  0  0  0  0  0  0  0  0
  1  2  1  0
  2  3  2  0
  3  4  1  0
  4  5  2  0
  5  6  1  0
  6  7  2  0
  7  2  1  0
  1  8  1  0
  3  9  1  0
  4 10  1  0
  5 11  1  0
  7 12  1  0
M  END

>  <ID>
Pocket2Mol_20_num_sample_100

>  <docking_score>
-4.7

$$$$
Pocket2Mol_21_num_sample_100
     RDKit          3D

 12 12  0  0  0  0  0  0  0  0999 V2000
   12.5400    8.8450   -1.4270 N   0  0  0  0  0  0  0  0  0  0  0  0
   12.2240    8.3030   -2.7360 C   0  0  0  0  0  0  0  0  0  0  0  0
   11.9410    6.9980   -2.9140 C   0  0  0  0  0  0  0  0  0  0  0  0
   11.4750    6.6530   -4.0780 C   0  0  0  0  0  0  0  0  0  0  0  0
   11.4220    7.4600   -5.0250 N   0  0  0  0  0  0  0  0  0  0  0  0
   11.8900    8.7240   -4.8650 C   0  0  0  0  0  0  0  0  0  0  0  0
   12.2740    9.2620   -3.5970 N   0  0  0  0  0  0  0  0  0  0  0  0
   12.6140    8.2170   -0.6130 H   0  0  0  0  0  0  0  0  0  0  0  0
   12.6910    9.8570   -1.3130 H   0  0  0  0  0  0  0  0  0  0  0  0
   12.0966    6.2599   -2.1134 H   0  0  0  0  0  0  0  0  0  0  0  0
   11.1190    5.6233   -4.2298 H   0  0  0  0  0  0  0  0  0  0  0  0
   11.9782    9.3657   -5.7540 H   0  0  0  0  0  0  0  0  0  0  0  0
  1  2  1  0
  2  3  2  0
  3  4  1  0
  4  5  2  0
  5  6  1  0
  6  7  2  0
  7  2  1  0
  1  8  1  0
  1  9  1  0
  3 10  1  0
  4 11  1  0
  6 12  1  0
M  END

>  <ID>
Pocket2Mol_21_num_sample_100

>  <docking_score>
-4.489

$$$$
Pocket2Mol_22_num_sample_100
     RDKit          3D

  9  9  0  0  0  0  0  0  0  0999 V2000
   12.1920    6.7050   -2.3160 C   0  0  0  0  0  0  0  0  0  0  0  0
   12.6710    8.2010   -2.0600 C   0  0  0  0  0  0  0  0  0  0  0  0
   12.3120    8.9790   -3.2720 C   0  0  0  0  0  0  0  0  0  0  0  0
   11.8830    8.0600   -4.1150 O   0  0  0  0  0  0  0  0  0  0  0  0
   11.7170    6.8410   -3.5910 C   0  0  0  0  0  0  0  0  0  0  0  0
   12.2314    5.8223   -1.6608 H   0  0  0  0  0  0  0  0  0  0  0  0
   13.1716    8.5844   -1.1587 H   0  0  0  0  0  0  0  0  0  0  0  0
   12.3862   10.0651   -3.4297 H   0  0  0  0  0  0  0  0  0  0  0  0
   11.2383    6.0165   -4.1398 H   0  0  0  0  0  0  0  0  0  0  0  0
  1  2  1  0
  2  3  2  0
  3  4  1  0
  4  5  1  0
  5  1  2  0
  1  6  1  0
  2  7  1  0
  3  8  1  0
  5  9  1  0
M  END

>  <ID>
Pocket2Mol_22_num_sample_100

>  <docking_score>
-3.729

$$$$
Pocket2Mol_23_num_sample_100
     RDKit          3D

 11 11  0  0  0  0  0  0  0  0999 V2000
   13.1350    8.2500   -0.9710 F   0  0  0  0  0  0  0  0  0  0  0  0
   12.5140    8.1110   -2.3600 C   0  0  0  0  0  0  0  0  0  0  0  0
   12.1830    6.8310   -2.6230 C   0  0  0  0  0  0  0  0  0  0  0  0
   11.5610    6.6210   -3.8800 C   0  0  0  0  0  0  0  0  0  0  0  0
   11.5270    7.6200   -4.7310 C   0  0  0  0  0  0  0  0  0  0  0  0
   12.0140    8.8230   -4.4040 N   0  0  0  0  0  0  0  0  0  0  0  0
   12.5310    9.0200   -3.2890 C   0  0  0  0  0  0  0  0  0  0  0  0
   12.3804    6.0116   -1.9162 H   0  0  0  0  0  0  0  0  0  0  0  0
   11.1187    5.6467   -4.1352 H   0  0  0  0  0  0  0  0  0  0  0  0
   11.0911    7.4658   -5.7291 H   0  0  0  0  0  0  0  0  0  0  0  0
   13.0141    9.9869   -3.0848 H   0  0  0  0  0  0  0  0  0  0  0  0
  1  2  1  0
  2  3  2  0
  3  4  1  0
  4  5  2  0
  5  6  1  0
  6  7  2  0
  7  2  1  0
  3  8  1  0
  4  9  1  0
  5 10  1  0
  7 11  1  0
M  END

>  <ID>
Pocket2Mol_23_num_sample_100

>  <docking_score>
-4.885

$$$$
Pocket2Mol_24_num_sample_100
     RDKit          3D

 15 16  0  0  0  0  0  0  0  0999 V2000
   12.9460    8.5820   -1.3320 O   0  0  0  0  0  0  0  0  0  0  0  0
   12.9240    8.4690   -2.6280 C   0  0  1  0  0  0  0  0  0  0  0  0
   12.1620    7.1690   -3.0010 C   0  0  2  0  0  0  0  0  0  0  0  0
   11.3530    6.6580   -4.1770 C   0  0  0  0  0  0  0  0  0  0  0  0
   11.5770    7.6180   -5.1750 C   0  0  0  0  0  0  0  0  0  0  0  0
   11.9430    8.7720   -4.6080 O   0  0  0  0  0  0  0  0  0  0  0  0
   11.8290    8.9100   -3.4240 C   0  0  2  0  0  0  0  0  0  0  0  0
   12.4930    9.4210   -1.0660 H   0  0  0  0  0  0  0  0  0  0  0  0
   13.9494    8.8327   -2.7903 H   0  0  0  0  0  0  0  0  0  0  0  0
   12.3113    6.2050   -2.4927 H   0  0  0  0  0  0  0  0  0  0  0  0
   11.7091    5.6679   -4.4978 H   0  0  0  0  0  0  0  0  0  0  0  0
   10.2867    6.5308   -3.9386 H   0  0  0  0  0  0  0  0  0  0  0  0
   12.3756    7.2697   -5.8464 H   0  0  0  0  0  0  0  0  0  0  0  0
   10.6531    7.7695   -5.7525 H   0  0  0  0  0  0  0  0  0  0  0  0
   11.1685    9.7808   -3.2994 H   0  0  0  0  0  0  0  0  0  0  0  0
  1  2  1  0
  2  3  1  0
  3  4  1  0
  4  5  1  0
  5  6  1  0
  6  7  1  0
  7  2  1  0
  7  3  1  0
  1  8  1  0
  2  9  1  6
  3 10  1  1
  4 11  1  0
  4 12  1  0
  5 13  1  0
  5 14  1  0
  7 15  1  6
M  END

>  <ID>
Pocket2Mol_24_num_sample_100

>  <docking_score>
-4.254

$$$$
Pocket2Mol_25_num_sample_100
     RDKit          3D

 15 15  0  0  0  0  0  0  0  0999 V2000
   11.0270    6.7030   -5.3770 C   0  0  0  0  0  0  0  0  0  0  0  0
   11.7450    7.6310   -4.4980 C   0  0  0  0  0  0  0  0  0  0  0  0
   11.9760    8.9090   -4.4350 C   0  0  0  0  0  0  0  0  0  0  0  0
   12.4680    9.4340   -3.4190 N   0  0  0  0  0  0  0  0  0  0  0  0
   12.5930    8.4750   -2.4850 C   0  0  0  0  0  0  0  0  0  0  0  0
   13.0080    8.5200   -1.1390 N   0  0  0  0  0  0  0  0  0  0  0  0
   12.0800    7.2840   -3.0940 N   0  0  0  0  0  0  0  0  0  0  0  0
   10.4669    5.9791   -4.7668 H   0  0  0  0  0  0  0  0  0  0  0  0
   10.3273    7.2664   -6.0118 H   0  0  0  0  0  0  0  0  0  0  0  0
   11.7480    6.1672   -6.0118 H   0  0  0  0  0  0  0  0  0  0  0  0
   11.7307    9.5419   -5.3006 H   0  0  0  0  0  0  0  0  0  0  0  0
   12.7340   10.4240   -3.3130 H   0  0  0  0  0  0  0  0  0  0  0  0
   13.8800    9.0060   -0.8850 H   0  0  0  0  0  0  0  0  0  0  0  0
   12.4390    8.0660   -0.4100 H   0  0  0  0  0  0  0  0  0  0  0  0
   11.9660    6.3640   -2.6460 H   0  0  0  0  0  0  0  0  0  0  0  0
  1  2  1  0
  2  3  2  0
  3  4  1  0
  4  5  2  0
  5  6  1  0
  5  7  1  0
  7  2  1  0
  1  8  1  0
  1  9  1  0
  1 10  1  0
  3 11  1  0
  4 12  1  0
  6 13  1  0
  6 14  1  0
  7 15  1  0
M  CHG  1   4   1
M  END

>  <ID>
Pocket2Mol_25_num_sample_100

>  <docking_score>
-4.252

$$$$
Pocket2Mol_26_num_sample_100
     RDKit          3D

 15 15  0  0  0  0  0  0  0  0999 V2000
   12.7080    8.8230   -1.4930 O   0  0  0  0  0  0  0  0  0  0  0  0
   12.7490    8.4910   -2.7510 C   0  0  1  0  0  0  0  0  0  0  0  0
   12.0390    6.9970   -3.1050 C   0  0  0  0  0  0  0  0  0  0  0  0
   11.3180    6.6900   -4.4400 C   0  0  0  0  0  0  0  0  0  0  0  0
   11.3830    7.7970   -5.3360 C   0  0  0  0  0  0  0  0  0  0  0  0
   12.1530    8.7910   -4.8790 O   0  0  0  0  0  0  0  0  0  0  0  0
   12.0100    9.1790   -3.7560 C   0  0  0  0  0  0  0  0  0  0  0  0
   13.6180    9.0630   -1.1860 H   0  0  0  0  0  0  0  0  0  0  0  0
   13.8354    8.6536   -2.8089 H   0  0  0  0  0  0  0  0  0  0  0  0
   12.0924    6.2019   -2.3467 H   0  0  0  0  0  0  0  0  0  0  0  0
   10.8182    5.7372   -4.6686 H   0  0  0  0  0  0  0  0  0  0  0  0
   11.7923    7.4485   -6.2957 H   0  0  0  0  0  0  0  0  0  0  0  0
   10.3628    8.1932   -5.4464 H   0  0  0  0  0  0  0  0  0  0  0  0
   12.3091   10.2371   -3.7265 H   0  0  0  0  0  0  0  0  0  0  0  0
   10.9516    8.9990   -3.5163 H   0  0  0  0  0  0  0  0  0  0  0  0
  1  2  1  0
  2  3  1  0
  3  4  2  0
  4  5  1  0
  5  6  1  0
  6  7  1  0
  7  2  1  0
  1  8  1  0
  2  9  1  6
  3 10  1  0
  4 11  1  0
  5 12  1  0
  5 13  1  0
  7 14  1  0
  7 15  1  0
M  END

>  <ID>
Pocket2Mol_26_num_sample_100

>  <docking_score>
-4.594

$$$$
Pocket2Mol_27_num_sample_100
     RDKit          3D

 15 15  0  0  0  0  0  0  0  0999 V2000
   12.5520    8.3710   -1.5910 C   0  0  0  0  0  0  0  0  0  0  0  0
   12.6020    7.9160   -2.8400 C   0  0  0  0  0  0  0  0  0  0  0  0
   11.9000    6.8150   -3.1220 C   0  0  0  0  0  0  0  0  0  0  0  0
   11.4310    6.6360   -4.4540 C   0  0  0  0  0  0  0  0  0  0  0  0
   11.3560    7.9450   -5.1900 C   0  0  0  0  0  0  0  0  0  0  0  0
   11.9450    9.0300   -4.6090 C   0  0  0  0  0  0  0  0  0  0  0  0
   12.8480    8.7510   -3.6620 O   0  0  0  0  0  0  0  0  0  0  0  0
   12.6446    7.5285   -0.8899 H   0  0  0  0  0  0  0  0  0  0  0  0
   13.3778    9.0785   -1.4252 H   0  0  0  0  0  0  0  0  0  0  0  0
   11.5923    8.8823   -1.4252 H   0  0  0  0  0  0  0  0  0  0  0  0
   11.6897    6.0657   -2.3446 H   0  0  0  0  0  0  0  0  0  0  0  0
   11.1581    5.6635   -4.8896 H   0  0  0  0  0  0  0  0  0  0  0  0
   10.8452    8.0250   -6.1609 H   0  0  0  0  0  0  0  0  0  0  0  0
   12.4479    9.6074   -5.3987 H   0  0  0  0  0  0  0  0  0  0  0  0
   11.1373    9.5822   -4.1063 H   0  0  0  0  0  0  0  0  0  0  0  0
  1  2  1  0
  2  3  2  0
  3  4  1  0
  4  5  2  0
  5  6  1  0
  6  7  1  0
  7  2  1  0
  1  8  1  0
  1  9  1  0
  1 10  1  0
  3 11  1  0
  4 12  1  0
  5 13  1  0
  6 14  1  0
  6 15  1  0
M  END

>  <ID>
Pocket2Mol_27_num_sample_100

>  <docking_score>
-4.942

$$$$
Pocket2Mol_28_num_sample_100
     RDKit          3D

 13 13  0  0  0  0  0  0  0  0999 V2000
   11.9270    6.4280   -2.3560 O   0  0  0  0  0  0  0  0  0  0  0  0
   11.7390    7.1240   -3.6050 C   0  0  0  0  0  0  0  0  0  0  0  0
   11.2250    6.5490   -4.6710 C   0  0  0  0  0  0  0  0  0  0  0  0
   11.1040    7.2880   -5.8290 C   0  0  0  0  0  0  0  0  0  0  0  0
   11.5470    8.5500   -5.8630 N   0  0  0  0  0  0  0  0  0  0  0  0
   12.0530    9.0760   -4.8550 C   0  0  0  0  0  0  0  0  0  0  0  0
   12.0660    8.4710   -3.7040 C   0  0  0  0  0  0  0  0  0  0  0  0
   12.7550    9.0330   -2.4420 O   0  0  0  0  0  0  0  0  0  0  0  0
   12.4290    6.8580   -1.6200 H   0  0  0  0  0  0  0  0  0  0  0  0
   10.8981    5.4992   -4.6391 H   0  0  0  0  0  0  0  0  0  0  0  0
   10.6443    6.8409   -6.7227 H   0  0  0  0  0  0  0  0  0  0  0  0
   12.5003   10.0774   -4.9398 H   0  0  0  0  0  0  0  0  0  0  0  0
   12.2090    9.4020   -1.7030 H   0  0  0  0  0  0  0  0  0  0  0  0
  1  2  1  0
  2  3  2  0
  3  4  1  0
  4  5  2  0
  5  6  1  0
  6  7  2  0
  7  8  1  0
  7  2  1  0
  1  9  1  0
  3 10  1  0
  4 11  1  0
  6 12  1  0
  8 13  1  0
M  END

>  <ID>
Pocket2Mol_28_num_sample_100

>  <docking_score>
-4.505

$$$$
Pocket2Mol_29_num_sample_100
     RDKit          3D

 18 18  0  0  0  0  0  0  0  0999 V2000
    7.9050    5.5240   -9.0530 O   0  0  0  0  0  0  0  0  0  0  0  0
    9.1520    5.7170   -8.7380 C   0  0  0  0  0  0  0  0  0  0  0  0
    9.5600    6.2320   -7.4740 C   0  0  0  0  0  0  0  0  0  0  0  0
   10.7390    6.3400   -7.3000 O   0  0  0  0  0  0  0  0  0  0  0  0
   11.3630    7.4590   -7.6840 C   0  0  0  0  0  0  0  0  0  0  0  0
   10.5010    8.2210   -8.4870 C   0  0  0  0  0  0  0  0  0  0  0  0
   10.9600    7.3600   -9.6920 O   0  0  0  0  0  0  0  0  0  0  0  0
    9.6790    6.9110   -9.8210 C   0  0  0  0  0  0  0  0  0  0  0  0
    7.5720    6.2980   -9.5720 H   0  0  0  0  0  0  0  0  0  0  0  0
    9.5555    4.6937   -8.7453 H   0  0  0  0  0  0  0  0  0  0  0  0
    9.1116    7.2298   -7.3583 H   0  0  0  0  0  0  0  0  0  0  0  0
    9.2213    5.4925   -6.7334 H   0  0  0  0  0  0  0  0  0  0  0  0
   11.6495    8.0425   -6.7966 H   0  0  0  0  0  0  0  0  0  0  0  0
   12.2649    7.1986   -8.2573 H   0  0  0  0  0  0  0  0  0  0  0  0
    9.4348    8.1235   -8.2346 H   0  0  0  0  0  0  0  0  0  0  0  0
   10.5555    9.3194   -8.5098 H   0  0  0  0  0  0  0  0  0  0  0  0
    9.0129    7.7785   -9.7038 H   0  0  0  0  0  0  0  0  0  0  0  0
    9.6517    6.4248  -10.8073 H   0  0  0  0  0  0  0  0  0  0  0  0
  1  2  1  0
  2  3  1  0
  3  4  1  0
  4  5  1  0
  5  6  1  0
  6  7  1  0
  7  8  1  0
  8  2  1  0
  1  9  1  0
  2 10  1  0
  3 11  1  0
  3 12  1  0
  5 13  1  0
  5 14  1  0
  6 15  1  0
  6 16  1  0
  8 17  1  0
  8 18  1  0
M  END

>  <ID>
Pocket2Mol_29_num_sample_100

>  <docking_score>
-3.996

$$$$
Pocket2Mol_2_num_sample_100
     RDKit          3D

 10 10  0  0  0  0  0  0  0  0999 V2000
   12.3070    7.0960   -2.2620 C   0  0  0  0  0  0  0  0  0  0  0  0
   12.1370    7.7880   -3.5570 C   0  0  0  0  0  0  0  0  0  0  0  0
   12.1150    9.1240   -3.1950 C   0  0  0  0  0  0  0  0  0  0  0  0
   12.3890    9.2690   -1.8030 N   0  0  0  0  0  0  0  0  0  0  0  0
   12.5550    8.0850   -1.4550 C   0  0  0  0  0  0  0  0  0  0  0  0
   12.2408    6.0210   -2.0385 H   0  0  0  0  0  0  0  0  0  0  0  0
   12.0494    7.3491   -4.5618 H   0  0  0  0  0  0  0  0  0  0  0  0
   11.9143    9.9572   -3.8846 H   0  0  0  0  0  0  0  0  0  0  0  0
   12.4360   10.1270   -1.2360 H   0  0  0  0  0  0  0  0  0  0  0  0
   12.9204    7.8704   -0.4399 H   0  0  0  0  0  0  0  0  0  0  0  0
  1  2  1  0
  2  3  2  0
  3  4  1  0
  4  5  1  0
  5  1  2  0
  1  6  1  0
  2  7  1  0
  3  8  1  0
  4  9  1  0
  5 10  1  0
M  END

>  <ID>
Pocket2Mol_2_num_sample_100

>  <docking_score>
-3.82

$$$$
Pocket2Mol_30_num_sample_100
     RDKit          3D

 14 14  0  0  0  0  0  0  0  0999 V2000
   11.0800    7.4060   -6.4560 C   0  0  0  0  0  0  0  0  0  0  0  0
   11.1780    6.5930   -5.2880 O   0  0  0  0  0  0  0  0  0  0  0  0
   11.6690    7.2940   -4.1150 C   0  0  0  0  0  0  0  0  0  0  0  0
   11.8160    6.6750   -2.9280 C   0  0  0  0  0  0  0  0  0  0  0  0
   12.4500    7.3300   -2.0000 C   0  0  0  0  0  0  0  0  0  0  0  0
   12.7820    8.5200   -2.1530 N   0  0  0  0  0  0  0  0  0  0  0  0
   12.4110    9.0410   -3.4350 C   0  0  0  0  0  0  0  0  0  0  0  0
   11.9330    8.4430   -4.3630 N   0  0  0  0  0  0  0  0  0  0  0  0
   10.9532    8.4581   -6.1609 H   0  0  0  0  0  0  0  0  0  0  0  0
   11.9973    7.3009   -7.0539 H   0  0  0  0  0  0  0  0  0  0  0  0
   10.2139    7.0860   -7.0539 H   0  0  0  0  0  0  0  0  0  0  0  0
   11.4191    5.6644   -2.7517 H   0  0  0  0  0  0  0  0  0  0  0  0
   12.6987    6.8202   -1.0575 H   0  0  0  0  0  0  0  0  0  0  0  0
   12.5839   10.1163   -3.5892 H   0  0  0  0  0  0  0  0  0  0  0  0
  1  2  1  0
  2  3  1  0
  3  4  2  0
  4  5  1  0
  5  6  2  0
  6  7  1  0
  7  8  2  0
  8  3  1  0
  1  9  1  0
  1 10  1  0
  1 11  1  0
  4 12  1  0
  5 13  1  0
  7 14  1  0
M  END

>  <ID>
Pocket2Mol_30_num_sample_100

>  <docking_score>
-4.427

$$$$
Pocket2Mol_31_num_sample_100
     RDKit          3D

 20 21  0  0  0  0  0  0  0  0999 V2000
   12.5820    8.2540   -8.3390 C   0  0  0  0  0  0  0  0  0  0  0  0
   11.6110    7.7480   -7.5830 C   0  0  1  0  0  0  0  0  0  0  0  0
   10.4830    7.3440   -8.3050 C   0  0  0  0  0  0  0  0  0  0  0  0
   10.0180    5.9060   -7.8800 C   0  0  0  0  0  0  0  0  0  0  0  0
   11.3270    6.2000   -6.7630 C   0  0  2  0  0  0  0  0  0  0  0  0
   11.0840    6.7240   -5.2770 C   0  0  0  0  0  0  0  0  0  0  0  0
   11.3620    8.1250   -5.4390 C   0  0  0  0  0  0  0  0  0  0  0  0
   11.2200    8.4800   -6.7210 O   0  0  0  0  0  0  0  0  0  0  0  0
   13.3721    8.6657   -7.6939 H   0  0  0  0  0  0  0  0  0  0  0  0
   13.0034    7.4608   -8.9740 H   0  0  0  0  0  0  0  0  0  0  0  0
   12.1732    9.0538   -8.9740 H   0  0  0  0  0  0  0  0  0  0  0  0
    9.6646    8.0549   -8.1183 H   0  0  0  0  0  0  0  0  0  0  0  0
   10.7441    7.3226   -9.3733 H   0  0  0  0  0  0  0  0  0  0  0  0
    9.0103    5.8221   -7.4469 H   0  0  0  0  0  0  0  0  0  0  0  0
    9.9055    5.0335   -8.5403 H   0  0  0  0  0  0  0  0  0  0  0  0
   11.9634    5.3147   -6.6174 H   0  0  0  0  0  0  0  0  0  0  0  0
   10.0477    6.5516   -4.9509 H   0  0  0  0  0  0  0  0  0  0  0  0
   11.6944    6.2232   -4.5110 H   0  0  0  0  0  0  0  0  0  0  0  0
   10.6629    8.7078   -4.8212 H   0  0  0  0  0  0  0  0  0  0  0  0
   12.3972    8.3237   -5.1246 H   0  0  0  0  0  0  0  0  0  0  0  0
  2  1  1  6
  2  3  1  0
  3  4  1  0
  4  5  1  0
  5  6  1  0
  6  7  1  0
  7  8  1  0
  5  2  1  0
  8  2  1  0
  1  9  1  0
  1 10  1  0
  1 11  1  0
  3 12  1  0
  3 13  1  0
  4 14  1  0
  4 15  1  0
  5 16  1  1
  6 17  1  0
  6 18  1  0
  7 19  1  0
  7 20  1  0
M  END

>  <ID>
Pocket2Mol_31_num_sample_100

>  <docking_score>
-5.176

$$$$
Pocket2Mol_32_num_sample_100
     RDKit          3D

 17 18  0  0  0  0  0  0  0  0999 V2000
   11.0800    7.1360   -6.0280 C   0  0  0  0  0  0  0  0  0  0  0  0
   11.4960    8.6020   -6.1670 C   0  0  0  0  0  0  0  0  0  0  0  0
   11.9620    9.3050   -5.0960 C   0  0  0  0  0  0  0  0  0  0  0  0
   12.0620    8.6840   -3.8700 C   0  0  0  0  0  0  0  0  0  0  0  0
   11.7250    7.3450   -3.9220 C   0  0  0  0  0  0  0  0  0  0  0  0
   11.2370    6.4970   -4.9010 C   0  0  0  0  0  0  0  0  0  0  0  0
   12.0150    6.9180   -2.4340 C   0  0  0  0  0  0  0  0  0  0  0  0
   12.5910    8.1350   -1.7610 C   0  0  0  0  0  0  0  0  0  0  0  0
   12.4860    9.0930   -2.6890 O   0  0  0  0  0  0  0  0  0  0  0  0
   10.6421    6.6129   -6.8909 H   0  0  0  0  0  0  0  0  0  0  0  0
   11.4178    9.0964   -7.1465 H   0  0  0  0  0  0  0  0  0  0  0  0
   12.2557   10.3590   -5.2095 H   0  0  0  0  0  0  0  0  0  0  0  0
   11.0123    5.4308   -4.7499 H   0  0  0  0  0  0  0  0  0  0  0  0
   11.0839    6.6098   -1.9359 H   0  0  0  0  0  0  0  0  0  0  0  0
   12.7069    6.0642   -2.3861 H   0  0  0  0  0  0  0  0  0  0  0  0
   12.0136    8.3956   -0.8617 H   0  0  0  0  0  0  0  0  0  0  0  0
   13.6263    7.9833   -1.4216 H   0  0  0  0  0  0  0  0  0  0  0  0
  1  2  2  0
  2  3  1  0
  3  4  2  0
  4  5  1  0
  5  6  2  0
  5  7  1  0
  7  8  1  0
  8  9  1  0
  6  1  1  0
  9  4  1  0
  1 10  1  0
  2 11  1  0
  3 12  1  0
  6 13  1  0
  7 14  1  0
  7 15  1  0
  8 16  1  0
  8 17  1  0
M  END

>  <ID>
Pocket2Mol_32_num_sample_100

>  <docking_score>
-6.323

$$$$
Pocket2Mol_33_num_sample_100
     RDKit          3D

 12 12  0  0  0  0  0  0  0  0999 V2000
   12.3150    7.0660   -2.2390 C   0  0  0  0  0  0  0  0  0  0  0  0
   12.5780    8.0520   -1.4340 C   0  0  0  0  0  0  0  0  0  0  0  0
   12.4170    9.2380   -1.7800 N   0  0  0  0  0  0  0  0  0  0  0  0
   12.1190    9.1000   -3.1630 C   0  0  0  0  0  0  0  0  0  0  0  0
   12.1380    7.7590   -3.5330 C   0  0  0  0  0  0  0  0  0  0  0  0
   12.2427    5.9915   -2.0150 H   0  0  0  0  0  0  0  0  0  0  0  0
   12.9518    7.8340   -0.4227 H   0  0  0  0  0  0  0  0  0  0  0  0
   12.4820   10.0950   -1.2120 H   0  0  0  0  0  0  0  0  0  0  0  0
   11.1204    9.5164   -3.3617 H   0  0  0  0  0  0  0  0  0  0  0  0
   12.8780    9.6414   -3.7467 H   0  0  0  0  0  0  0  0  0  0  0  0
   11.1924    7.4668   -4.0131 H   0  0  0  0  0  0  0  0  0  0  0  0
   12.9223    7.5201   -4.2664 H   0  0  0  0  0  0  0  0  0  0  0  0
  1  2  2  0
  2  3  1  0
  3  4  1  0
  4  5  1  0
  5  1  1  0
  1  6  1  0
  2  7  1  0
  3  8  1  0
  4  9  1  0
  4 10  1  0
  5 11  1  0
  5 12  1  0
M  END

>  <ID>
Pocket2Mol_33_num_sample_100

>  <docking_score>
-3.826

$$$$
Pocket2Mol_34_num_sample_100
     RDKit          3D

 21 22  0  0  0  0  0  0  0  0999 V2000
   10.9650    6.6170   -6.1920 C   0  0  0  0  0  0  0  0  0  0  0  0
   10.9590    7.7730   -6.8510 C   0  0  1  0  0  0  0  0  0  0  0  0
   11.0420    8.8970   -6.0230 C   0  0  0  0  0  0  0  0  0  0  0  0
   12.2090    9.8330   -6.4960 C   0  0  0  0  0  0  0  0  0  0  0  0
   12.8560    9.1590   -7.4300 O   0  0  0  0  0  0  0  0  0  0  0  0
   12.1240    7.9880   -7.9030 C   0  0  2  0  0  0  0  0  0  0  0  0
   11.3210    8.6370   -9.1080 C   0  0  0  0  0  0  0  0  0  0  0  0
   10.1770    8.0610   -8.8770 C   0  0  0  0  0  0  0  0  0  0  0  0
   10.0060    7.9380   -7.5570 O   0  0  0  0  0  0  0  0  0  0  0  0
   10.9640    6.8121   -5.1094 H   0  0  0  0  0  0  0  0  0  0  0  0
   10.0699    6.0370   -6.4609 H   0  0  0  0  0  0  0  0  0  0  0  0
   11.8661    6.0463   -6.4609 H   0  0  0  0  0  0  0  0  0  0  0  0
   10.0923    9.4505   -6.0653 H   0  0  0  0  0  0  0  0  0  0  0  0
   11.2399    8.5695   -4.9917 H   0  0  0  0  0  0  0  0  0  0  0  0
   11.8054   10.7690   -6.9095 H   0  0  0  0  0  0  0  0  0  0  0  0
   12.8719   10.1061   -5.6618 H   0  0  0  0  0  0  0  0  0  0  0  0
   12.7381    7.0953   -8.0928 H   0  0  0  0  0  0  0  0  0  0  0  0
   11.2618    9.7327   -9.0304 H   0  0  0  0  0  0  0  0  0  0  0  0
   11.7464    8.4930  -10.1122 H   0  0  0  0  0  0  0  0  0  0  0  0
    9.3654    8.6727   -9.2978 H   0  0  0  0  0  0  0  0  0  0  0  0
   10.1625    7.0661   -9.3461 H   0  0  0  0  0  0  0  0  0  0  0  0
  2  1  1  1
  2  3  1  0
  3  4  1  0
  4  5  1  0
  5  6  1  0
  6  7  1  0
  7  8  1  0
  8  9  1  0
  6  2  1  0
  9  2  1  0
  1 10  1  0
  1 11  1  0
  1 12  1  0
  3 13  1  0
  3 14  1  0
  4 15  1  0
  4 16  1  0
  6 17  1  6
  7 18  1  0
  7 19  1  0
  8 20  1  0
  8 21  1  0
M  END

>  <ID>
Pocket2Mol_34_num_sample_100

>  <docking_score>
-4.987

$$$$
Pocket2Mol_35_num_sample_100
     RDKit          3D

 16 17  0  0  0  0  0  0  0  0999 V2000
   11.4540    8.5680   -6.1650 C   0  0  0  0  0  0  0  0  0  0  0  0
   11.8970    9.2860   -5.0840 C   0  0  0  0  0  0  0  0  0  0  0  0
   12.0040    8.7350   -3.8630 C   0  0  0  0  0  0  0  0  0  0  0  0
   11.7390    7.3820   -3.9650 C   0  0  0  0  0  0  0  0  0  0  0  0
   11.2130    6.5600   -4.9450 C   0  0  0  0  0  0  0  0  0  0  0  0
   11.1430    7.2490   -6.1930 N   0  0  0  0  0  0  0  0  0  0  0  0
   11.9590    6.7670   -2.5630 C   0  0  0  0  0  0  0  0  0  0  0  0
   12.7530    8.1070   -1.8450 C   0  0  0  0  0  0  0  0  0  0  0  0
   12.5100    9.1050   -2.7020 O   0  0  0  0  0  0  0  0  0  0  0  0
   11.3389    9.1208   -7.1090 H   0  0  0  0  0  0  0  0  0  0  0  0
   12.1724   10.3422   -5.2201 H   0  0  0  0  0  0  0  0  0  0  0  0
   10.8931    5.5198   -4.7849 H   0  0  0  0  0  0  0  0  0  0  0  0
   11.0114    6.5243   -2.0599 H   0  0  0  0  0  0  0  0  0  0  0  0
   12.4994    5.8094   -2.5325 H   0  0  0  0  0  0  0  0  0  0  0  0
   12.3327    8.3286   -0.8529 H   0  0  0  0  0  0  0  0  0  0  0  0
   13.8266    7.9332   -1.6804 H   0  0  0  0  0  0  0  0  0  0  0  0
  1  2  2  0
  2  3  1  0
  3  4  2  0
  4  5  1  0
  5  6  2  0
  4  7  1  0
  7  8  1  0
  8  9  1  0
  6  1  1  0
  9  3  1  0
  1 10  1  0
  2 11  1  0
  5 12  1  0
  7 13  1  0
  7 14  1  0
  8 15  1  0
  8 16  1  0
M  END

>  <ID>
Pocket2Mol_35_num_sample_100

>  <docking_score>
-5.518

$$$$
Pocket2Mol_36_num_sample_100
     RDKit          3D

 15 16  0  0  0  0  0  0  0  0999 V2000
   12.4090    7.8850   -2.4920 C   0  0  0  0  0  0  0  0  0  0  0  0
   11.8880    6.7290   -3.1390 C   0  0  0  0  0  0  0  0  0  0  0  0
   11.4080    6.6670   -4.5160 C   0  0  0  0  0  0  0  0  0  0  0  0
   11.4140    7.8190   -5.2090 C   0  0  0  0  0  0  0  0  0  0  0  0
   12.0090    8.8740   -4.5410 C   0  0  0  0  0  0  0  0  0  0  0  0
   12.4140    9.1010   -3.2380 C   0  0  0  0  0  0  0  0  0  0  0  0
   11.8530   10.0000   -5.7020 O   0  0  0  0  0  0  0  0  0  0  0  0
   11.6280    9.2230   -6.9450 C   0  0  0  0  0  0  0  0  0  0  0  0
   11.1830    8.0470   -6.4880 O   0  0  0  0  0  0  0  0  0  0  0  0
   12.7912    7.8425   -1.4614 H   0  0  0  0  0  0  0  0  0  0  0  0
   11.8432    5.8013   -2.5496 H   0  0  0  0  0  0  0  0  0  0  0  0
   11.0589    5.7251   -4.9642 H   0  0  0  0  0  0  0  0  0  0  0  0
   12.7002   10.0829   -2.8332 H   0  0  0  0  0  0  0  0  0  0  0  0
   10.8762    9.7088   -7.5844 H   0  0  0  0  0  0  0  0  0  0  0  0
   12.5293    9.1327   -7.5691 H   0  0  0  0  0  0  0  0  0  0  0  0
  1  2  2  0
  2  3  1  0
  3  4  2  0
  4  5  1  0
  5  6  2  0
  5  7  1  0
  7  8  1  0
  8  9  1  0
  6  1  1  0
  9  4  1  0
  1 10  1  0
  2 11  1  0
  3 12  1  0
  6 13  1  0
  8 14  1  0
  8 15  1  0
M  END

>  <ID>
Pocket2Mol_36_num_sample_100

>  <docking_score>
-5.832

$$$$
Pocket2Mol_37_num_sample_100
     RDKit          3D

 17 18  0  0  0  0  0  0  0  0999 V2000
   10.7560    7.1920   -6.0760 C   0  0  0  0  0  0  0  0  0  0  0  0
   11.2860    8.6470   -6.1180 C   0  0  0  0  0  0  0  0  0  0  0  0
   11.9810    9.4440   -5.2080 C   0  0  0  0  0  0  0  0  0  0  0  0
   12.0590    8.6990   -3.9990 C   0  0  0  0  0  0  0  0  0  0  0  0
   12.3990    9.1070   -2.7920 O   0  0  0  0  0  0  0  0  0  0  0  0
   12.4350    8.1510   -1.8570 C   0  0  0  0  0  0  0  0  0  0  0  0
   11.9480    6.9050   -2.5450 C   0  0  0  0  0  0  0  0  0  0  0  0
   11.7200    7.3600   -4.0730 C   0  0  0  0  0  0  0  0  0  0  0  0
   11.3000    6.5130   -5.0830 C   0  0  0  0  0  0  0  0  0  0  0  0
   10.0213    6.7780   -6.7823 H   0  0  0  0  0  0  0  0  0  0  0  0
   11.0683    9.1605   -7.0661 H   0  0  0  0  0  0  0  0  0  0  0  0
   12.9906    9.6616   -5.5865 H   0  0  0  0  0  0  0  0  0  0  0  0
   11.4720   10.4064   -5.0510 H   0  0  0  0  0  0  0  0  0  0  0  0
   12.7528    8.2540   -0.8090 H   0  0  0  0  0  0  0  0  0  0  0  0
   11.7849    5.9102   -2.1049 H   0  0  0  0  0  0  0  0  0  0  0  0
   12.1654    5.9507   -5.4637 H   0  0  0  0  0  0  0  0  0  0  0  0
   10.5441    5.8272   -4.6727 H   0  0  0  0  0  0  0  0  0  0  0  0
  1  2  2  0
  2  3  1  0
  3  4  1  0
  4  5  1  0
  5  6  1  0
  6  7  2  0
  7  8  1  0
  8  9  1  0
  9  1  1  0
  8  4  2  0
  1 10  1  0
  2 11  1  0
  3 12  1  0
  3 13  1  0
  6 14  1  0
  7 15  1  0
  9 16  1  0
  9 17  1  0
M  END

>  <ID>
Pocket2Mol_37_num_sample_100

>  <docking_score>
-6.217

$$$$
Pocket2Mol_38_num_sample_100
     RDKit          3D

 15 16  0  0  0  0  0  0  0  0999 V2000
   10.9470    7.2630   -6.0530 C   0  0  0  0  0  0  0  0  0  0  0  0
   11.2300    8.6020   -6.1010 C   0  0  0  0  0  0  0  0  0  0  0  0
   11.9190    9.4250   -5.2370 C   0  0  0  0  0  0  0  0  0  0  0  0
   12.0180    8.7230   -4.0050 C   0  0  0  0  0  0  0  0  0  0  0  0
   12.3720    9.1740   -2.8170 O   0  0  0  0  0  0  0  0  0  0  0  0
   12.4270    8.2510   -1.8510 C   0  0  0  0  0  0  0  0  0  0  0  0
   12.0030    6.9140   -2.5720 C   0  0  0  0  0  0  0  0  0  0  0  0
   11.6890    7.3800   -4.0290 C   0  0  0  0  0  0  0  0  0  0  0  0
   11.2610    6.4960   -5.0030 C   0  0  0  0  0  0  0  0  0  0  0  0
   10.4410    6.7994   -6.9127 H   0  0  0  0  0  0  0  0  0  0  0  0
   10.8355    9.1136   -6.9913 H   0  0  0  0  0  0  0  0  0  0  0  0
   12.3144   10.4276   -5.4572 H   0  0  0  0  0  0  0  0  0  0  0  0
   12.7043    8.3919   -0.7959 H   0  0  0  0  0  0  0  0  0  0  0  0
   11.9430    5.8996   -2.1509 H   0  0  0  0  0  0  0  0  0  0  0  0
   11.1935    5.4005   -4.9300 H   0  0  0  0  0  0  0  0  0  0  0  0
  1  2  2  0
  2  3  1  0
  3  4  2  0
  4  5  1  0
  5  6  1  0
  6  7  2  0
  7  8  1  0
  8  9  2  0
  9  1  1  0
  8  4  1  0
  1 10  1  0
  2 11  1  0
  3 12  1  0
  6 13  1  0
  7 14  1  0
  9 15  1  0
M  END

>  <ID>
Pocket2Mol_38_num_sample_100

>  <docking_score>
-6.228

$$$$
Pocket2Mol_39_num_sample_100
     RDKit          3D

 14 15  0  0  0  0  0  0  0  0999 V2000
   11.4820    8.6050   -6.0330 C   0  0  0  0  0  0  0  0  0  0  0  0
   12.0200    9.3380   -5.0770 C   0  0  0  0  0  0  0  0  0  0  0  0
   12.0690    8.7280   -3.8360 C   0  0  0  0  0  0  0  0  0  0  0  0
   12.5170    9.1210   -2.6580 O   0  0  0  0  0  0  0  0  0  0  0  0
   12.6440    8.1510   -1.7460 C   0  0  0  0  0  0  0  0  0  0  0  0
   12.0410    6.7530   -2.4910 C   0  0  0  0  0  0  0  0  0  0  0  0
   11.7340    7.3880   -3.8990 C   0  0  0  0  0  0  0  0  0  0  0  0
   11.2280    6.5520   -4.8790 C   0  0  0  0  0  0  0  0  0  0  0  0
   11.2140    7.2980   -6.1080 N   0  0  0  0  0  0  0  0  0  0  0  0
   11.2032    9.1735   -6.9325 H   0  0  0  0  0  0  0  0  0  0  0  0
   12.4001   10.3551   -5.2529 H   0  0  0  0  0  0  0  0  0  0  0  0
   13.0528    8.2413   -0.7288 H   0  0  0  0  0  0  0  0  0  0  0  0
   11.9069    5.7291   -2.1120 H   0  0  0  0  0  0  0  0  0  0  0  0
   10.8982    5.5114   -4.7431 H   0  0  0  0  0  0  0  0  0  0  0  0
  1  2  2  0
  2  3  1  0
  3  4  1  0
  4  5  1  0
  5  6  2  0
  6  7  1  0
  7  8  1  0
  8  9  2  0
  9  1  1  0
  7  3  2  0
  1 10  1  0
  2 11  1  0
  5 12  1  0
  6 13  1  0
  8 14  1  0
M  END

>  <ID>
Pocket2Mol_39_num_sample_100

>  <docking_score>
-5.58

$$$$
Pocket2Mol_3_num_sample_100
     RDKit          3D

 11 10  0  0  0  0  0  0  0  0999 V2000
   12.2420    9.1850   -3.1620 C   0  0  0  0  0  0  0  0  0  0  0  0
   12.6570    7.9160   -3.0730 O   0  0  0  0  0  0  0  0  0  0  0  0
   11.8510    7.0310   -3.0740 C   0  0  0  0  0  0  0  0  0  0  0  0
   11.4590    6.6420   -4.2850 C   0  0  0  0  0  0  0  0  0  0  0  0
   11.2790    6.5850   -2.0470 O   0  0  0  0  0  0  0  0  0  0  0  0
   12.1068    9.5983   -2.1516 H   0  0  0  0  0  0  0  0  0  0  0  0
   12.9927    9.7791   -3.7038 H   0  0  0  0  0  0  0  0  0  0  0  0
   11.2853    9.2208   -3.7038 H   0  0  0  0  0  0  0  0  0  0  0  0
   10.6812    5.8702   -4.1883 H   0  0  0  0  0  0  0  0  0  0  0  0
   11.0533    7.5047   -4.8338 H   0  0  0  0  0  0  0  0  0  0  0  0
   12.3185    6.2296   -4.8338 H   0  0  0  0  0  0  0  0  0  0  0  0
  1  2  1  0
  2  3  1  0
  3  4  1  0
  3  5  2  0
  1  6  1  0
  1  7  1  0
  1  8  1  0
  4  9  1  0
  4 10  1  0
  4 11  1  0
M  END

>  <ID>
Pocket2Mol_3_num_sample_100

>  <docking_score>
-3.262

$$$$
Pocket2Mol_40_num_sample_100
     RDKit          3D

 14 14  0  0  0  0  0  0  0  0999 V2000
   12.7950    9.5730   -6.3110 O   0  0  0  0  0  0  0  0  0  0  0  0
   11.9290    9.5630   -5.2320 C   0  0  0  0  0  0  0  0  0  0  0  0
   11.1000   10.3080   -5.3270 O   0  0  0  0  0  0  0  0  0  0  0  0
   12.0040    8.6280   -4.2320 C   0  0  0  0  0  0  0  0  0  0  0  0
   11.4790    7.2860   -4.3430 C   0  0  0  0  0  0  0  0  0  0  0  0
   11.9520    6.5820   -3.4980 O   0  0  0  0  0  0  0  0  0  0  0  0
   11.8800    6.9530   -2.2150 C   0  0  0  0  0  0  0  0  0  0  0  0
   12.5090    8.2170   -1.9880 C   0  0  0  0  0  0  0  0  0  0  0  0
   12.8560    8.7700   -3.3150 O   0  0  0  0  0  0  0  0  0  0  0  0
   10.7484    6.9579   -5.0970 H   0  0  0  0  0  0  0  0  0  0  0  0
   10.8214    7.0256   -1.9249 H   0  0  0  0  0  0  0  0  0  0  0  0
   12.4061    6.1980   -1.6124 H   0  0  0  0  0  0  0  0  0  0  0  0
   11.8181    8.8946   -1.4650 H   0  0  0  0  0  0  0  0  0  0  0  0
   13.4067    8.1028   -1.3626 H   0  0  0  0  0  0  0  0  0  0  0  0
  1  2  2  0
  2  3  1  0
  2  4  1  0
  4  5  2  0
  5  6  1  0
  6  7  1  0
  7  8  1  0
  8  9  1  0
  9  4  1  0
  5 10  1  0
  7 11  1  0
  7 12  1  0
  8 13  1  0
  8 14  1  0
M  CHG  1   3  -1
M  END

>  <ID>
Pocket2Mol_40_num_sample_100

>  <docking_score>
-4.624

$$$$
Pocket2Mol_41_num_sample_100
     RDKit          3D

 15 16  0  0  0  0  0  0  0  0999 V2000
   12.0710    6.9590   -3.0320 C   0  0  0  0  0  0  0  0  0  0  0  0
   12.6480    8.0950   -2.6900 C   0  0  0  0  0  0  0  0  0  0  0  0
   12.6070    9.2390   -3.6150 C   0  0  0  0  0  0  0  0  0  0  0  0
   11.9430    8.7810   -4.7390 C   0  0  0  0  0  0  0  0  0  0  0  0
   11.3480    7.5870   -5.1030 C   0  0  0  0  0  0  0  0  0  0  0  0
   11.3910    6.5350   -4.1480 C   0  0  0  0  0  0  0  0  0  0  0  0
   10.8010    7.5970   -6.3040 O   0  0  0  0  0  0  0  0  0  0  0  0
   10.9750    8.7260   -6.9990 C   0  0  0  0  0  0  0  0  0  0  0  0
   11.7880    9.9810   -5.8770 S   0  0  0  0  0  0  0  0  0  0  0  0
   12.1518    6.1837   -2.2559 H   0  0  0  0  0  0  0  0  0  0  0  0
   13.1568    8.1866   -1.7191 H   0  0  0  0  0  0  0  0  0  0  0  0
   13.0176   10.2457   -3.4479 H   0  0  0  0  0  0  0  0  0  0  0  0
   10.9487    5.5368   -4.2817 H   0  0  0  0  0  0  0  0  0  0  0  0
   11.6188    8.5322   -7.8696 H   0  0  0  0  0  0  0  0  0  0  0  0
   10.0066    9.1060   -7.3564 H   0  0  0  0  0  0  0  0  0  0  0  0
  1  2  2  0
  2  3  1  0
  3  4  2  0
  4  5  1  0
  5  6  2  0
  5  7  1  0
  7  8  1  0
  8  9  1  0
  6  1  1  0
  9  4  1  0
  1 10  1  0
  2 11  1  0
  3 12  1  0
  6 13  1  0
  8 14  1  0
  8 15  1  0
M  END

>  <ID>
Pocket2Mol_41_num_sample_100

>  <docking_score>
-5.726

$$$$
Pocket2Mol_42_num_sample_100
     RDKit          3D

 23 24  0  0  0  0  0  0  0  0999 V2000
   11.0520    6.6460   -5.5440 C   0  0  0  0  0  0  0  0  0  0  0  0
   10.8050    7.6450   -6.3880 C   0  0  1  0  0  0  0  0  0  0  0  0
   11.0490    8.9130   -5.8520 C   0  0  0  0  0  0  0  0  0  0  0  0
   11.9910    9.7310   -6.8040 C   0  0  0  0  0  0  0  0  0  0  0  0
   12.5570    8.7810   -7.6990 C   0  0  0  0  0  0  0  0  0  0  0  0
   11.6250    7.6390   -7.7430 C   0  0  2  0  0  0  0  0  0  0  0  0
   10.4900    8.0320   -8.7800 C   0  0  0  0  0  0  0  0  0  0  0  0
    9.4850    7.5180   -8.1330 C   0  0  0  0  0  0  0  0  0  0  0  0
    9.6880    7.6660   -6.8190 O   0  0  0  0  0  0  0  0  0  0  0  0
   10.9622    7.0092   -4.5096 H   0  0  0  0  0  0  0  0  0  0  0  0
   10.3271    5.8360   -5.7124 H   0  0  0  0  0  0  0  0  0  0  0  0
   12.0709    6.2671   -5.7124 H   0  0  0  0  0  0  0  0  0  0  0  0
   10.0951    9.4485   -5.7366 H   0  0  0  0  0  0  0  0  0  0  0  0
   11.5374    8.8011   -4.8727 H   0  0  0  0  0  0  0  0  0  0  0  0
   11.4133   10.4842   -7.3599 H   0  0  0  0  0  0  0  0  0  0  0  0
   12.7675   10.2692   -6.2406 H   0  0  0  0  0  0  0  0  0  0  0  0
   12.6660    9.2212   -8.7012 H   0  0  0  0  0  0  0  0  0  0  0  0
   13.5563    8.4658   -7.3643 H   0  0  0  0  0  0  0  0  0  0  0  0
   12.1708    6.7074   -7.9536 H   0  0  0  0  0  0  0  0  0  0  0  0
   10.3952    9.1208   -8.9047 H   0  0  0  0  0  0  0  0  0  0  0  0
   10.6329    7.6859   -9.8143 H   0  0  0  0  0  0  0  0  0  0  0  0
    8.5578    8.0340   -8.4228 H   0  0  0  0  0  0  0  0  0  0  0  0
    9.3959    6.4489   -8.3759 H   0  0  0  0  0  0  0  0  0  0  0  0
  2  1  1  1
  2  3  1  0
  3  4  1  0
  4  5  1  0
  5  6  1  0
  6  7  1  0
  7  8  1  0
  8  9  1  0
  6  2  1  0
  9  2  1  0
  1 10  1  0
  1 11  1  0
  1 12  1  0
  3 13  1  0
  3 14  1  0
  4 15  1  0
  4 16  1  0
  5 17  1  0
  5 18  1  0
  6 19  1  6
  7 20  1  0
  7 21  1  0
  8 22  1  0
  8 23  1  0
M  END

>  <ID>
Pocket2Mol_42_num_sample_100

>  <docking_score>
-5.401

$$$$
Pocket2Mol_43_num_sample_100
     RDKit          3D

 16 17  0  0  0  0  0  0  0  0999 V2000
   12.7610    8.5000   -2.4730 C   0  0  0  0  0  0  0  0  0  0  0  0
   12.4410    7.1940   -2.3800 C   0  0  0  0  0  0  0  0  0  0  0  0
   11.7380    6.5210   -3.2060 C   0  0  0  0  0  0  0  0  0  0  0  0
   11.3560    7.0950   -4.4220 C   0  0  0  0  0  0  0  0  0  0  0  0
   11.9070    8.3550   -4.5620 C   0  0  0  0  0  0  0  0  0  0  0  0
   12.4440    9.2890   -3.6940 C   0  0  0  0  0  0  0  0  0  0  0  0
   11.4200    8.9990   -5.9960 N   0  0  0  0  0  0  0  0  0  0  0  0
   11.1920    7.2730   -6.6510 C   0  0  0  0  0  0  0  0  0  0  0  0
   10.9440    6.5530   -5.5520 O   0  0  0  0  0  0  0  0  0  0  0  0
   13.2667    8.9924   -1.6293 H   0  0  0  0  0  0  0  0  0  0  0  0
   12.8249    6.6528   -1.5027 H   0  0  0  0  0  0  0  0  0  0  0  0
   11.4337    5.4925   -2.9617 H   0  0  0  0  0  0  0  0  0  0  0  0
   12.6002   10.3641   -3.8664 H   0  0  0  0  0  0  0  0  0  0  0  0
   11.2950    9.9510   -6.3710 H   0  0  0  0  0  0  0  0  0  0  0  0
   10.3447    7.2267   -7.3510 H   0  0  0  0  0  0  0  0  0  0  0  0
   12.0643    6.9094   -7.2140 H   0  0  0  0  0  0  0  0  0  0  0  0
  1  2  2  0
  2  3  1  0
  3  4  2  0
  4  5  1  0
  5  6  2  0
  5  7  1  0
  7  8  1  0
  8  9  1  0
  6  1  1  0
  9  4  1  0
  1 10  1  0
  2 11  1  0
  3 12  1  0
  6 13  1  0
  7 14  1  0
  8 15  1  0
  8 16  1  0
M  END

>  <ID>
Pocket2Mol_43_num_sample_100

>  <docking_score>
-5.752

$$$$
Pocket2Mol_44_num_sample_100
     RDKit          3D

  8  8  0  0  0  0  0  0  0  0999 V2000
   12.0620    6.9290   -2.3270 C   0  0  0  0  0  0  0  0  0  0  0  0
   12.5930    8.0880   -2.0720 C   0  0  0  0  0  0  0  0  0  0  0  0
   12.3600    8.9630   -3.4100 S   0  0  0  0  0  0  0  0  0  0  0  0
   11.6490    7.5420   -4.4490 C   0  0  0  0  0  0  0  0  0  0  0  0
   11.6600    6.6320   -3.4680 N   0  0  0  0  0  0  0  0  0  0  0  0
   11.9654    6.1928   -1.5155 H   0  0  0  0  0  0  0  0  0  0  0  0
   13.0932    8.4047   -1.1449 H   0  0  0  0  0  0  0  0  0  0  0  0
   11.3344    7.4857   -5.5015 H   0  0  0  0  0  0  0  0  0  0  0  0
  1  2  2  0
  2  3  1  0
  3  4  1  0
  4  5  2  0
  5  1  1  0
  1  6  1  0
  2  7  1  0
  4  8  1  0
M  END

>  <ID>
Pocket2Mol_44_num_sample_100

>  <docking_score>
-2.908

$$$$
Pocket2Mol_45_num_sample_100
     RDKit          3D

 14 15  0  0  0  0  0  0  0  0999 V2000
   12.4240    7.5470   -1.9200 C   0  0  0  0  0  0  0  0  0  0  0  0
   11.9540    6.6020   -2.7900 C   0  0  0  0  0  0  0  0  0  0  0  0
   11.5380    6.9460   -4.0360 C   0  0  0  0  0  0  0  0  0  0  0  0
   11.8160    8.2840   -4.2470 C   0  0  0  0  0  0  0  0  0  0  0  0
   12.2050    9.3400   -3.4420 C   0  0  0  0  0  0  0  0  0  0  0  0
   12.6160    8.8670   -2.1590 N   0  0  0  0  0  0  0  0  0  0  0  0
   11.2320    8.4100   -5.7930 O   0  0  0  0  0  0  0  0  0  0  0  0
   11.2120    6.9990   -6.2550 C   0  0  0  0  0  0  0  0  0  0  0  0
   11.1770    6.2890   -5.1220 O   0  0  0  0  0  0  0  0  0  0  0  0
   12.6754    7.1945   -0.9088 H   0  0  0  0  0  0  0  0  0  0  0  0
   11.9124    5.5486   -2.4759 H   0  0  0  0  0  0  0  0  0  0  0  0
   12.1985   10.3966   -3.7478 H   0  0  0  0  0  0  0  0  0  0  0  0
   10.3207    6.8009   -6.8685 H   0  0  0  0  0  0  0  0  0  0  0  0
   12.0770    6.7474   -6.8862 H   0  0  0  0  0  0  0  0  0  0  0  0
  1  2  2  0
  2  3  1  0
  3  4  2  0
  4  5  1  0
  5  6  2  0
  4  7  1  0
  7  8  1  0
  8  9  1  0
  6  1  1  0
  9  3  1  0
  1 10  1  0
  2 11  1  0
  5 12  1  0
  8 13  1  0
  8 14  1  0
M  END

>  <ID>
Pocket2Mol_45_num_sample_100

>  <docking_score>
-5.197

$$$$
Pocket2Mol_46_num_sample_100
     RDKit          3D

 18 19  0  0  0  0  0  0  0  0999 V2000
   12.4260    8.0730   -1.9330 C   0  0  0  0  0  0  0  0  0  0  0  0
   12.1560    6.8310   -2.3800 C   0  0  0  0  0  0  0  0  0  0  0  0
   11.6650    6.5780   -3.6280 C   0  0  0  0  0  0  0  0  0  0  0  0
   11.6690    7.6450   -4.4210 C   0  0  0  0  0  0  0  0  0  0  0  0
   12.3110    8.7920   -4.1800 C   0  0  0  0  0  0  0  0  0  0  0  0
   12.4240    9.1750   -2.9100 C   0  0  0  0  0  0  0  0  0  0  0  0
   12.3480    9.6880   -4.9730 O   0  0  0  0  0  0  0  0  0  0  0  0
   11.2840    9.9290   -5.7470 C   0  0  0  0  0  0  0  0  0  0  0  0
   10.7040    8.8250   -6.3000 C   0  0  0  0  0  0  0  0  0  0  0  0
   11.0090    7.4920   -5.6730 O   0  0  0  0  0  0  0  0  0  0  0  0
   12.6414    8.2583   -0.8703 H   0  0  0  0  0  0  0  0  0  0  0  0
   12.3400    5.9805   -1.7071 H   0  0  0  0  0  0  0  0  0  0  0  0
   11.3020    5.5895   -3.9461 H   0  0  0  0  0  0  0  0  0  0  0  0
   12.5091   10.2310   -2.6138 H   0  0  0  0  0  0  0  0  0  0  0  0
   10.5267   10.4400   -5.1344 H   0  0  0  0  0  0  0  0  0  0  0  0
   11.6509   10.5342   -6.5891 H   0  0  0  0  0  0  0  0  0  0  0  0
    9.6143    8.9683   -6.2557 H   0  0  0  0  0  0  0  0  0  0  0  0
   11.1298    8.7623   -7.3123 H   0  0  0  0  0  0  0  0  0  0  0  0
  1  2  2  0
  2  3  1  0
  3  4  2  0
  4  5  1  0
  5  6  2  0
  5  7  1  0
  7  8  1  0
  8  9  1  0
  9 10  1  0
  6  1  1  0
 10  4  1  0
  1 11  1  0
  2 12  1  0
  3 13  1  0
  6 14  1  0
  8 15  1  0
  8 16  1  0
  9 17  1  0
  9 18  1  0
M  END

>  <ID>
Pocket2Mol_46_num_sample_100

>  <docking_score>
-6.347

$$$$
Pocket2Mol_47_num_sample_100
     RDKit          3D

 16 17  0  0  0  0  0  0  0  0999 V2000
   11.0500    9.5340   -6.1280 C   0  0  0  0  0  0  0  0  0  0  0  0
   10.6230    8.7340   -6.3840 C   0  0  0  0  0  0  0  0  0  0  0  0
   10.8740    7.6220   -5.8920 O   0  0  0  0  0  0  0  0  0  0  0  0
   11.5290    7.7590   -4.4950 C   0  0  0  0  0  0  0  0  0  0  0  0
   11.5210    6.5260   -3.8690 C   0  0  0  0  0  0  0  0  0  0  0  0
   12.1370    6.7450   -2.5800 C   0  0  0  0  0  0  0  0  0  0  0  0
   12.5160    7.9860   -2.2040 C   0  0  0  0  0  0  0  0  0  0  0  0
   12.6320    9.0420   -2.9420 C   0  0  0  0  0  0  0  0  0  0  0  0
   12.0820    8.9950   -4.2120 C   0  0  0  0  0  0  0  0  0  0  0  0
   11.8440    9.9180   -5.1230 O   0  0  0  0  0  0  0  0  0  0  0  0
   10.8443   10.3556   -6.8299 H   0  0  0  0  0  0  0  0  0  0  0  0
    9.8536    8.7887   -7.1682 H   0  0  0  0  0  0  0  0  0  0  0  0
   11.1288    5.5788   -4.2677 H   0  0  0  0  0  0  0  0  0  0  0  0
   12.2984    5.8953   -1.9004 H   0  0  0  0  0  0  0  0  0  0  0  0
   12.7557    8.1144   -1.1381 H   0  0  0  0  0  0  0  0  0  0  0  0
   13.1473    9.9420   -2.5752 H   0  0  0  0  0  0  0  0  0  0  0  0
  1  2  2  0
  2  3  1  0
  3  4  1  0
  4  5  2  0
  5  6  1  0
  6  7  2  0
  7  8  1  0
  8  9  2  0
  9 10  1  0
 10  1  1  0
  9  4  1  0
  1 11  1  0
  2 12  1  0
  5 13  1  0
  6 14  1  0
  7 15  1  0
  8 16  1  0
M  END

>  <ID>
Pocket2Mol_47_num_sample_100

>  <docking_score>
-6.293

$$$$
Pocket2Mol_48_num_sample_100
     RDKit          3D

 19 20  0  0  0  0  0  0  0  0999 V2000
   11.1970    7.1110   -6.2790 C   0  0  0  0  0  0  0  0  0  0  0  0
   11.5150    8.4510   -6.5110 C   0  0  0  0  0  0  0  0  0  0  0  0
   11.8610    9.2880   -5.5490 C   0  0  0  0  0  0  0  0  0  0  0  0
   11.8950    8.8640   -4.2310 C   0  0  0  0  0  0  0  0  0  0  0  0
   11.6460    7.5090   -4.1130 C   0  0  0  0  0  0  0  0  0  0  0  0
   11.2340    6.5110   -4.9790 C   0  0  0  0  0  0  0  0  0  0  0  0
   11.6830    6.9430   -2.5650 C   0  0  0  0  0  0  0  0  0  0  0  0
   12.0070    7.8350   -1.7810 N   0  0  0  0  0  0  0  0  0  0  0  0
   12.4140    8.6270   -2.0620 C   0  0  0  0  0  0  0  0  0  0  0  0
   12.2670    9.4480   -3.1080 O   0  0  0  0  0  0  0  0  0  0  0  0
   10.9041    6.4864   -7.1358 H   0  0  0  0  0  0  0  0  0  0  0  0
   11.4755    8.8275   -7.5438 H   0  0  0  0  0  0  0  0  0  0  0  0
   12.1235   10.3272   -5.7963 H   0  0  0  0  0  0  0  0  0  0  0  0
   10.9859    5.4707   -4.7217 H   0  0  0  0  0  0  0  0  0  0  0  0
   10.6846    6.5695   -2.2936 H   0  0  0  0  0  0  0  0  0  0  0  0
   12.4247    6.1330   -2.5034 H   0  0  0  0  0  0  0  0  0  0  0  0
   12.6560    7.4030   -1.1080 H   0  0  0  0  0  0  0  0  0  0  0  0
   12.2590    9.2973   -1.2037 H   0  0  0  0  0  0  0  0  0  0  0  0
   13.3157    8.1347   -2.4551 H   0  0  0  0  0  0  0  0  0  0  0  0
  1  2  2  0
  2  3  1  0
  3  4  2  0
  4  5  1  0
  5  6  2  0
  5  7  1  0
  7  8  1  0
  8  9  1  0
  9 10  1  0
  6  1  1  0
 10  4  1  0
  1 11  1  0
  2 12  1  0
  3 13  1  0
  6 14  1  0
  7 15  1  0
  7 16  1  0
  8 17  1  0
  9 18  1  0
  9 19  1  0
M  END

>  <ID>
Pocket2Mol_48_num_sample_100

>  <docking_score>
-6.372

$$$$
Pocket2Mol_49_num_sample_100
     RDKit          3D

 20 21  0  0  0  0  0  0  0  0999 V2000
   11.2090    7.2080   -6.4150 C   0  0  0  0  0  0  0  0  0  0  0  0
   11.6170    8.5350   -6.5710 C   0  0  0  0  0  0  0  0  0  0  0  0
   11.9890    9.3000   -5.5610 C   0  0  0  0  0  0  0  0  0  0  0  0
   11.9630    8.8100   -4.2660 C   0  0  0  0  0  0  0  0  0  0  0  0
   11.6270    7.4700   -4.2220 C   0  0  0  0  0  0  0  0  0  0  0  0
   11.1760    6.5440   -5.1460 C   0  0  0  0  0  0  0  0  0  0  0  0
   11.5890    6.8290   -2.7030 C   0  0  0  0  0  0  0  0  0  0  0  0
   12.8380    7.1740   -2.0810 C   0  0  0  0  0  0  0  0  0  0  0  0
   12.4110    8.4360   -2.1010 C   0  0  0  0  0  0  0  0  0  0  0  0
   12.3420    9.3140   -3.1070 O   0  0  0  0  0  0  0  0  0  0  0  0
   10.8985    6.6466   -7.3085 H   0  0  0  0  0  0  0  0  0  0  0  0
   11.6289    8.9633   -7.5841 H   0  0  0  0  0  0  0  0  0  0  0  0
   12.3212   10.3316   -5.7492 H   0  0  0  0  0  0  0  0  0  0  0  0
   10.8575    5.5101   -4.9470 H   0  0  0  0  0  0  0  0  0  0  0  0
   10.7504    7.2544   -2.1323 H   0  0  0  0  0  0  0  0  0  0  0  0
   11.4498    5.7383   -2.7358 H   0  0  0  0  0  0  0  0  0  0  0  0
   12.9854    6.7522   -1.0758 H   0  0  0  0  0  0  0  0  0  0  0  0
   13.8069    6.8769   -2.5088 H   0  0  0  0  0  0  0  0  0  0  0  0
   11.3766    8.3724   -1.7323 H   0  0  0  0  0  0  0  0  0  0  0  0
   13.2732    8.8831   -1.5846 H   0  0  0  0  0  0  0  0  0  0  0  0
  1  2  2  0
  2  3  1  0
  3  4  2  0
  4  5  1  0
  5  6  2  0
  5  7  1  0
  7  8  1  0
  8  9  1  0
  9 10  1  0
  6  1  1  0
 10  4  1  0
  1 11  1  0
  2 12  1  0
  3 13  1  0
  6 14  1  0
  7 15  1  0
  7 16  1  0
  8 17  1  0
  8 18  1  0
  9 19  1  0
  9 20  1  0
M  END

>  <ID>
Pocket2Mol_49_num_sample_100

>  <docking_score>
-6.837

$$$$
Pocket2Mol_4_num_sample_100
     RDKit          3D

  9  9  0  0  0  0  0  0  0  0999 V2000
    7.2170    4.9220   -0.0070 C   0  0  0  0  0  0  0  0  0  0  0  0
    6.5630    4.7760   -1.1210 C   0  0  0  0  0  0  0  0  0  0  0  0
    6.0980    3.6740   -1.4660 N   0  0  0  0  0  0  0  0  0  0  0  0
    6.8630    2.7940   -0.3850 N   0  0  0  0  0  0  0  0  0  0  0  0
    7.4420    3.5210    0.4060 C   0  0  0  0  0  0  0  0  0  0  0  0
    7.5239    5.8497    0.4982 H   0  0  0  0  0  0  0  0  0  0  0  0
    6.4168    5.6482   -1.7752 H   0  0  0  0  0  0  0  0  0  0  0  0
    6.8690    1.7630   -0.3560 H   0  0  0  0  0  0  0  0  0  0  0  0
    8.0294    3.1908    1.2754 H   0  0  0  0  0  0  0  0  0  0  0  0
  1  2  1  0
  2  3  2  0
  3  4  1  0
  4  5  1  0
  5  1  2  0
  1  6  1  0
  2  7  1  0
  4  8  1  0
  5  9  1  0
M  END

>  <ID>
Pocket2Mol_4_num_sample_100

>  <docking_score>
-3.877

$$$$
Pocket2Mol_50_num_sample_100
     RDKit          3D

 16 17  0  0  0  0  0  0  0  0999 V2000
   13.0190    8.5760   -1.2100 O   0  0  0  0  0  0  0  0  0  0  0  0
   12.4770    8.2670   -2.4980 C   0  0  0  0  0  0  0  0  0  0  0  0
   12.0500    6.9340   -2.6310 C   0  0  0  0  0  0  0  0  0  0  0  0
   11.4710    6.5520   -4.0050 C   0  0  0  0  0  0  0  0  0  0  0  0
   11.4300    7.6910   -4.7910 C   0  0  0  0  0  0  0  0  0  0  0  0
   11.9830    8.9550   -4.7070 C   0  0  0  0  0  0  0  0  0  0  0  0
   12.3750    9.2380   -3.3960 C   0  0  0  0  0  0  0  0  0  0  0  0
   11.6830    9.7470   -5.7190 O   0  0  0  0  0  0  0  0  0  0  0  0
   10.8390    9.2270   -6.6170 C   0  0  0  0  0  0  0  0  0  0  0  0
   10.9120    7.7630   -6.3450 O   0  0  0  0  0  0  0  0  0  0  0  0
   13.9790    8.4220   -1.0270 H   0  0  0  0  0  0  0  0  0  0  0  0
   12.1249    6.2104   -1.8059 H   0  0  0  0  0  0  0  0  0  0  0  0
   11.1456    5.5465   -4.3101 H   0  0  0  0  0  0  0  0  0  0  0  0
   12.6009   10.2748   -3.1061 H   0  0  0  0  0  0  0  0  0  0  0  0
    9.8178    9.6062   -6.4643 H   0  0  0  0  0  0  0  0  0  0  0  0
   11.0985    9.4866   -7.6539 H   0  0  0  0  0  0  0  0  0  0  0  0
  1  2  1  0
  2  3  2  0
  3  4  1  0
  4  5  2  0
  5  6  1  0
  6  7  2  0
  6  8  1  0
  8  9  1  0
  9 10  1  0
  7  2  1  0
 10  5  1  0
  1 11  1  0
  3 12  1  0
  4 13  1  0
  7 14  1  0
  9 15  1  0
  9 16  1  0
M  END

>  <ID>
Pocket2Mol_50_num_sample_100

>  <docking_score>
-6.02

$$$$
Pocket2Mol_51_num_sample_100
     RDKit          3D

 15 16  0  0  0  0  0  0  0  0999 V2000
   13.1440    8.2320   -1.3390 F   0  0  0  0  0  0  0  0  0  0  0  0
   12.5350    8.0140   -2.7080 C   0  0  0  0  0  0  0  0  0  0  0  0
   12.0220    6.8330   -2.9190 C   0  0  0  0  0  0  0  0  0  0  0  0
   11.3880    6.5120   -4.2100 C   0  0  0  0  0  0  0  0  0  0  0  0
   11.5160    7.6640   -4.9640 C   0  0  0  0  0  0  0  0  0  0  0  0
   12.0740    8.9120   -4.7540 C   0  0  0  0  0  0  0  0  0  0  0  0
   12.6740    9.1370   -3.4850 C   0  0  0  0  0  0  0  0  0  0  0  0
   11.9810    9.7300   -5.7860 O   0  0  0  0  0  0  0  0  0  0  0  0
   11.3010    9.2490   -6.8330 C   0  0  0  0  0  0  0  0  0  0  0  0
   10.9000    7.4550   -6.4920 S   0  0  0  0  0  0  0  0  0  0  0  0
   12.0631    6.0709   -2.1269 H   0  0  0  0  0  0  0  0  0  0  0  0
   10.9164    5.5640   -4.5083 H   0  0  0  0  0  0  0  0  0  0  0  0
   13.1724   10.0670   -3.1739 H   0  0  0  0  0  0  0  0  0  0  0  0
   10.3704    9.8199   -6.9671 H   0  0  0  0  0  0  0  0  0  0  0  0
   11.9018    9.3371   -7.7502 H   0  0  0  0  0  0  0  0  0  0  0  0
  1  2  1  0
  2  3  2  0
  3  4  1  0
  4  5  2  0
  5  6  1  0
  6  7  2  0
  6  8  1  0
  8  9  1  0
  9 10  1  0
  7  2  1  0
 10  5  1  0
  3 11  1  0
  4 12  1  0
  7 13  1  0
  9 14  1  0
  9 15  1  0
M  END

>  <ID>
Pocket2Mol_51_num_sample_100

>  <docking_score>
-6.231

$$$$
Pocket2Mol_52_num_sample_100
     RDKit          3D

 15 16  0  0  0  0  0  0  0  0999 V2000
   10.7450    6.5530   -7.2420 O   0  0  0  0  0  0  0  0  0  0  0  0
   11.2590    7.2100   -6.1450 N   0  0  0  0  0  0  0  0  0  0  0  0
   11.4790    8.5790   -6.2180 C   0  0  0  0  0  0  0  0  0  0  0  0
   12.0090    9.2930   -5.1590 C   0  0  0  0  0  0  0  0  0  0  0  0
   12.0440    8.7200   -3.8990 C   0  0  0  0  0  0  0  0  0  0  0  0
   12.4600    9.1550   -2.7250 O   0  0  0  0  0  0  0  0  0  0  0  0
   12.5850    8.2140   -1.7820 C   0  0  0  0  0  0  0  0  0  0  0  0
   12.0200    6.7850   -2.4970 C   0  0  0  0  0  0  0  0  0  0  0  0
   11.7320    7.3730   -3.9300 C   0  0  0  0  0  0  0  0  0  0  0  0
   11.2600    6.5010   -4.8940 C   0  0  0  0  0  0  0  0  0  0  0  0
   11.2240    9.1116   -7.1461 H   0  0  0  0  0  0  0  0  0  0  0  0
   12.4000   10.3090   -5.3165 H   0  0  0  0  0  0  0  0  0  0  0  0
   12.9721    8.3409   -0.7602 H   0  0  0  0  0  0  0  0  0  0  0  0
   11.8944    5.7707   -2.0903 H   0  0  0  0  0  0  0  0  0  0  0  0
   10.9443    5.4595   -4.7337 H   0  0  0  0  0  0  0  0  0  0  0  0
  1  2  1  0
  2  3  2  0
  3  4  1  0
  4  5  2  0
  5  6  1  0
  6  7  1  0
  7  8  2  0
  8  9  1  0
  9 10  2  0
 10  2  1  0
  9  5  1  0
  3 11  1  0
  4 12  1  0
  7 13  1  0
  8 14  1  0
 10 15  1  0
M  CHG  2   1  -1   2   1
M  END

>  <ID>
Pocket2Mol_52_num_sample_100

>  <docking_score>
-6.015

$$$$
Pocket2Mol_53_num_sample_100
     RDKit          3D

 17 18  0  0  0  0  0  0  0  0999 V2000
   10.6040    8.6610   -6.4560 C   0  0  0  0  0  0  0  0  0  0  0  0
   10.9810    7.6270   -5.9140 N   0  0  0  0  0  0  0  0  0  0  0  0
   11.5410    7.7640   -4.4800 C   0  0  0  0  0  0  0  0  0  0  0  0
   11.5860    6.5210   -3.8740 C   0  0  0  0  0  0  0  0  0  0  0  0
   12.1130    6.7290   -2.5560 C   0  0  0  0  0  0  0  0  0  0  0  0
   12.5430    8.0010   -2.1080 C   0  0  0  0  0  0  0  0  0  0  0  0
   12.4410    9.0950   -2.8520 C   0  0  0  0  0  0  0  0  0  0  0  0
   12.0730    9.0080   -4.1970 C   0  0  0  0  0  0  0  0  0  0  0  0
   11.7780    9.9400   -5.0840 O   0  0  0  0  0  0  0  0  0  0  0  0
   10.9560    9.5510   -6.0650 C   0  0  0  0  0  0  0  0  0  0  0  0
    9.9222    8.6421   -7.3190 H   0  0  0  0  0  0  0  0  0  0  0  0
   11.2782    5.5618   -4.3159 H   0  0  0  0  0  0  0  0  0  0  0  0
   12.1853    5.8715   -1.8708 H   0  0  0  0  0  0  0  0  0  0  0  0
   12.9796    8.0861   -1.1019 H   0  0  0  0  0  0  0  0  0  0  0  0
   12.6480   10.0790   -2.4059 H   0  0  0  0  0  0  0  0  0  0  0  0
   10.0234   10.0730   -5.8047 H   0  0  0  0  0  0  0  0  0  0  0  0
   11.7166    9.6775   -6.8495 H   0  0  0  0  0  0  0  0  0  0  0  0
  1  2  2  0
  2  3  1  0
  3  4  2  0
  4  5  1  0
  5  6  2  0
  6  7  1  0
  7  8  2  0
  8  9  1  0
  9 10  1  0
 10  1  1  0
  8  3  1  0
  1 11  1  0
  4 12  1  0
  5 13  1  0
  6 14  1  0
  7 15  1  0
 10 16  1  0
 10 17  1  0
M  END

>  <ID>
Pocket2Mol_53_num_sample_100

>  <docking_score>
-6.318

$$$$
Pocket2Mol_54_num_sample_100
     RDKit          3D

 18 19  0  0  0  0  0  0  0  0999 V2000
   13.1610    8.8310   -1.2250 O   0  0  0  0  0  0  0  0  0  0  0  0
   12.5780    8.3690   -2.4470 C   0  0  0  0  0  0  0  0  0  0  0  0
   12.2390    7.0050   -2.4370 C   0  0  0  0  0  0  0  0  0  0  0  0
   11.6200    6.4600   -3.7370 C   0  0  0  0  0  0  0  0  0  0  0  0
   11.4600    7.5160   -4.6160 C   0  0  0  0  0  0  0  0  0  0  0  0
   11.9260    8.8160   -4.6770 C   0  0  0  0  0  0  0  0  0  0  0  0
   12.3630    9.2440   -3.4210 C   0  0  0  0  0  0  0  0  0  0  0  0
   11.5210    9.4900   -5.7370 O   0  0  0  0  0  0  0  0  0  0  0  0
   10.6700    8.8350   -6.5360 C   0  0  0  0  0  0  0  0  0  0  0  0
   10.8380    7.1240   -6.0120 C   0  0  0  0  0  0  0  0  0  0  0  0
   12.7420    8.5980   -0.3590 H   0  0  0  0  0  0  0  0  0  0  0  0
   12.4054    6.3674   -1.5562 H   0  0  0  0  0  0  0  0  0  0  0  0
   11.3513    5.4115   -3.9331 H   0  0  0  0  0  0  0  0  0  0  0  0
   12.5303   10.3157   -3.2379 H   0  0  0  0  0  0  0  0  0  0  0  0
    9.6397    9.1918   -6.3903 H   0  0  0  0  0  0  0  0  0  0  0  0
   10.8870    8.9798   -7.6046 H   0  0  0  0  0  0  0  0  0  0  0  0
    9.8759    6.5975   -5.9280 H   0  0  0  0  0  0  0  0  0  0  0  0
   11.3920    6.4273   -6.6583 H   0  0  0  0  0  0  0  0  0  0  0  0
  1  2  1  0
  2  3  2  0
  3  4  1  0
  4  5  2  0
  5  6  1  0
  6  7  2  0
  6  8  1  0
  8  9  1  0
  9 10  1  0
  7  2  1  0
 10  5  1  0
  1 11  1  0
  3 12  1  0
  4 13  1  0
  7 14  1  0
  9 15  1  0
  9 16  1  0
 10 17  1  0
 10 18  1  0
M  END

>  <ID>
Pocket2Mol_54_num_sample_100

>  <docking_score>
-6.499

$$$$
Pocket2Mol_55_num_sample_100
     RDKit          3D

 13 13  0  0  0  0  0  0  0  0999 V2000
   12.6500    7.9170   -1.8900 C   0  0  0  0  0  0  0  0  0  0  0  0
   12.0090    6.7600   -2.3110 C   0  0  0  0  0  0  0  0  0  0  0  0
   11.6490    6.8500   -3.7520 C   0  0  0  0  0  0  0  0  0  0  0  0
   11.9660    8.0030   -3.9850 O   0  0  0  0  0  0  0  0  0  0  0  0
   12.3300    8.6170   -3.0210 C   0  0  0  0  0  0  0  0  0  0  0  0
   12.2135    8.3465   -0.9762 H   0  0  0  0  0  0  0  0  0  0  0  0
   13.7090    7.8505   -1.5999 H   0  0  0  0  0  0  0  0  0  0  0  0
   12.6792    5.9010   -2.1597 H   0  0  0  0  0  0  0  0  0  0  0  0
   11.0870    6.6343   -1.7244 H   0  0  0  0  0  0  0  0  0  0  0  0
   12.2263    6.1385   -4.3607 H   0  0  0  0  0  0  0  0  0  0  0  0
   10.6010    6.6060   -3.9804 H   0  0  0  0  0  0  0  0  0  0  0  0
   13.2239    9.1863   -3.3157 H   0  0  0  0  0  0  0  0  0  0  0  0
   11.4527    9.2144   -2.7319 H   0  0  0  0  0  0  0  0  0  0  0  0
  1  2  1  0
  2  3  1  0
  3  4  1  0
  4  5  1  0
  5  1  1  0
  1  6  1  0
  1  7  1  0
  2  8  1  0
  2  9  1  0
  3 10  1  0
  3 11  1  0
  5 12  1  0
  5 13  1  0
M  END

>  <ID>
Pocket2Mol_55_num_sample_100

>  <docking_score>
-3.648

$$$$
Pocket2Mol_56_num_sample_100
     RDKit          3D

 19 20  0  0  0  0  0  0  0  0999 V2000
   12.0290    6.7270   -2.6500 C   0  0  0  0  0  0  0  0  0  0  0  0
   12.5010    7.9590   -2.1880 C   0  0  0  0  0  0  0  0  0  0  0  0
   12.4930    9.0510   -2.9400 C   0  0  0  0  0  0  0  0  0  0  0  0
   12.1680    8.9770   -4.2980 C   0  0  0  0  0  0  0  0  0  0  0  0
   11.5710    7.7650   -4.5930 C   0  0  0  0  0  0  0  0  0  0  0  0
   11.5190    6.5260   -3.9790 C   0  0  0  0  0  0  0  0  0  0  0  0
   11.0550    7.6510   -6.0440 N   0  0  0  0  0  0  0  0  0  0  0  0
   10.5580    8.6910   -6.3320 C   0  0  0  0  0  0  0  0  0  0  0  0
   11.1530    9.5720   -6.2070 C   0  0  0  0  0  0  0  0  0  0  0  0
   11.9630    9.9170   -5.2000 O   0  0  0  0  0  0  0  0  0  0  0  0
   12.0488    5.8686   -1.9624 H   0  0  0  0  0  0  0  0  0  0  0  0
   12.8936    8.0250   -1.1626 H   0  0  0  0  0  0  0  0  0  0  0  0
   12.7442   10.0236   -2.4917 H   0  0  0  0  0  0  0  0  0  0  0  0
   11.1614    5.5825   -4.4171 H   0  0  0  0  0  0  0  0  0  0  0  0
   11.1270    6.8230   -6.6530 H   0  0  0  0  0  0  0  0  0  0  0  0
   10.2680    8.6361   -7.3917 H   0  0  0  0  0  0  0  0  0  0  0  0
    9.7250    8.8109   -5.6237 H   0  0  0  0  0  0  0  0  0  0  0  0
   11.8026    9.5880   -7.0945 H   0  0  0  0  0  0  0  0  0  0  0  0
   10.3355   10.2749   -5.9890 H   0  0  0  0  0  0  0  0  0  0  0  0
  1  2  2  0
  2  3  1  0
  3  4  2  0
  4  5  1  0
  5  6  2  0
  5  7  1  0
  7  8  1  0
  8  9  1  0
  9 10  1  0
  6  1  1  0
 10  4  1  0
  1 11  1  0
  2 12  1  0
  3 13  1  0
  6 14  1  0
  7 15  1  0
  8 16  1  0
  8 17  1  0
  9 18  1  0
  9 19  1  0
M  END

>  <ID>
Pocket2Mol_56_num_sample_100

>  <docking_score>
-6.312

$$$$
Pocket2Mol_57_num_sample_100
     RDKit          3D

 18 19  0  0  0  0  0  0  0  0999 V2000
   12.0090    6.7420   -2.7050 C   0  0  0  0  0  0  0  0  0  0  0  0
   12.4670    7.9860   -2.2640 C   0  0  0  0  0  0  0  0  0  0  0  0
   12.4870    9.0610   -3.0310 C   0  0  0  0  0  0  0  0  0  0  0  0
   12.0700    8.9890   -4.3490 C   0  0  0  0  0  0  0  0  0  0  0  0
   11.5600    7.7430   -4.6670 C   0  0  0  0  0  0  0  0  0  0  0  0
   11.5000    6.5190   -4.0250 C   0  0  0  0  0  0  0  0  0  0  0  0
   11.0380    7.6000   -6.2240 C   0  0  0  0  0  0  0  0  0  0  0  0
   10.3850    8.6690   -6.3030 O   0  0  0  0  0  0  0  0  0  0  0  0
   11.2320    9.4880   -6.3680 C   0  0  0  0  0  0  0  0  0  0  0  0
   11.9170    9.8960   -5.2940 O   0  0  0  0  0  0  0  0  0  0  0  0
   12.0408    5.8938   -2.0054 H   0  0  0  0  0  0  0  0  0  0  0  0
   12.8281    8.0743   -1.2287 H   0  0  0  0  0  0  0  0  0  0  0  0
   12.8371   10.0194   -2.6200 H   0  0  0  0  0  0  0  0  0  0  0  0
   11.1358    5.5689   -4.4429 H   0  0  0  0  0  0  0  0  0  0  0  0
   11.8730    7.5711   -6.9395 H   0  0  0  0  0  0  0  0  0  0  0  0
   10.4788    6.6817   -6.4567 H   0  0  0  0  0  0  0  0  0  0  0  0
   11.9778    9.1015   -7.0782 H   0  0  0  0  0  0  0  0  0  0  0  0
   10.6570   10.3894   -6.6266 H   0  0  0  0  0  0  0  0  0  0  0  0
  1  2  2  0
  2  3  1  0
  3  4  2  0
  4  5  1  0
  5  6  2  0
  5  7  1  0
  7  8  1  0
  8  9  1  0
  9 10  1  0
  6  1  1  0
 10  4  1  0
  1 11  1  0
  2 12  1  0
  3 13  1  0
  6 14  1  0
  7 15  1  0
  7 16  1  0
  9 17  1  0
  9 18  1  0
M  END

>  <ID>
Pocket2Mol_57_num_sample_100

>  <docking_score>
-6.455

$$$$
Pocket2Mol_58_num_sample_100
     RDKit          3D

 18 19  0  0  0  0  0  0  0  0999 V2000
   12.1970    7.1570   -2.3380 C   0  0  0  0  0  0  0  0  0  0  0  0
   11.6660    6.6100   -3.1410 C   0  0  0  0  0  0  0  0  0  0  0  0
   11.6560    7.4390   -4.5660 C   0  0  0  0  0  0  0  0  0  0  0  0
   11.2260    6.6200   -5.5960 C   0  0  0  0  0  0  0  0  0  0  0  0
   11.2150    7.4390   -6.7700 C   0  0  0  0  0  0  0  0  0  0  0  0
   11.5680    8.7910   -6.7620 C   0  0  0  0  0  0  0  0  0  0  0  0
   11.9270    9.4370   -5.6670 C   0  0  0  0  0  0  0  0  0  0  0  0
   11.9390    8.7870   -4.4440 C   0  0  0  0  0  0  0  0  0  0  0  0
   12.3160    9.1550   -3.2350 O   0  0  0  0  0  0  0  0  0  0  0  0
   12.4350    8.1610   -2.3480 C   0  0  0  0  0  0  0  0  0  0  0  0
   12.4973    6.5792   -1.4514 H   0  0  0  0  0  0  0  0  0  0  0  0
   11.1977    5.6242   -3.0034 H   0  0  0  0  0  0  0  0  0  0  0  0
   10.9495    5.5576   -5.5265 H   0  0  0  0  0  0  0  0  0  0  0  0
   10.9142    6.9821   -7.7243 H   0  0  0  0  0  0  0  0  0  0  0  0
   11.5459    9.3437   -7.7128 H   0  0  0  0  0  0  0  0  0  0  0  0
   12.2178   10.4962   -5.7268 H   0  0  0  0  0  0  0  0  0  0  0  0
   13.5137    8.1564   -2.1326 H   0  0  0  0  0  0  0  0  0  0  0  0
   11.5666    8.4684   -1.7468 H   0  0  0  0  0  0  0  0  0  0  0  0
  1  2  2  0
  2  3  1  0
  3  4  2  0
  4  5  1  0
  5  6  2  0
  6  7  1  0
  7  8  2  0
  8  9  1  0
  9 10  1  0
 10  1  1  0
  8  3  1  0
  1 11  1  0
  2 12  1  0
  4 13  1  0
  5 14  1  0
  6 15  1  0
  7 16  1  0
 10 17  1  0
 10 18  1  0
M  END

>  <ID>
Pocket2Mol_58_num_sample_100

>  <docking_score>
-6.943

$$$$
Pocket2Mol_59_num_sample_100
     RDKit          3D

 17 18  0  0  0  0  0  0  0  0999 V2000
   10.6450    6.5490   -7.1250 O   0  0  0  0  0  0  0  0  0  0  0  0
   11.2740    7.1770   -6.1050 N   0  0  0  0  0  0  0  0  0  0  0  0
   11.3160    8.5280   -6.1130 C   0  0  0  0  0  0  0  0  0  0  0  0
   11.8620    9.2700   -4.9770 C   0  0  0  0  0  0  0  0  0  0  0  0
   12.0610    8.6870   -3.7650 C   0  0  0  0  0  0  0  0  0  0  0  0
   11.7220    7.3490   -3.8450 C   0  0  0  0  0  0  0  0  0  0  0  0
   11.2160    6.5270   -4.8360 C   0  0  0  0  0  0  0  0  0  0  0  0
   12.3670    6.8230   -2.3350 C   0  0  0  0  0  0  0  0  0  0  0  0
   12.6300    8.0850   -1.6810 C   0  0  0  0  0  0  0  0  0  0  0  0
   12.5070    9.0650   -2.5820 O   0  0  0  0  0  0  0  0  0  0  0  0
   10.9341    9.0772   -6.9863 H   0  0  0  0  0  0  0  0  0  0  0  0
   12.1193   10.3315   -5.1071 H   0  0  0  0  0  0  0  0  0  0  0  0
   10.8234    5.5131   -4.6689 H   0  0  0  0  0  0  0  0  0  0  0  0
   11.6363    6.2232   -1.7726 H   0  0  0  0  0  0  0  0  0  0  0  0
   13.2487    6.1715   -2.4255 H   0  0  0  0  0  0  0  0  0  0  0  0
   11.9073    8.2379   -0.8659 H   0  0  0  0  0  0  0  0  0  0  0  0
   13.6464    8.0861   -1.2603 H   0  0  0  0  0  0  0  0  0  0  0  0
  1  2  1  0
  2  3  2  0
  3  4  1  0
  4  5  2  0
  5  6  1  0
  6  7  2  0
  6  8  1  0
  8  9  1  0
  9 10  1  0
  7  2  1  0
 10  5  1  0
  3 11  1  0
  4 12  1  0
  7 13  1  0
  8 14  1  0
  8 15  1  0
  9 16  1  0
  9 17  1  0
M  CHG  2   1  -1   2   1
M  END

>  <ID>
Pocket2Mol_59_num_sample_100

>  <docking_score>
-6.02

$$$$
Pocket2Mol_5_num_sample_100
     RDKit          3D

 16 16  0  0  0  0  0  0  0  0999 V2000
   11.9540    6.9070   -2.4050 C   0  0  0  0  0  0  0  0  0  0  0  0
   12.7380    8.2440   -2.1360 C   0  0  0  0  0  0  0  0  0  0  0  0
   12.1320    9.1620   -3.0410 C   0  0  0  0  0  0  0  0  0  0  0  0
   12.3780    9.0050   -4.2020 O   0  0  0  0  0  0  0  0  0  0  0  0
   11.6280    8.1690   -4.9280 C   0  0  0  0  0  0  0  0  0  0  0  0
   11.6380    6.7930   -3.8080 C   0  0  0  0  0  0  0  0  0  0  0  0
   12.5766    6.0525   -2.1014 H   0  0  0  0  0  0  0  0  0  0  0  0
   11.0198    6.9136   -1.8243 H   0  0  0  0  0  0  0  0  0  0  0  0
   12.6102    8.5739   -1.0944 H   0  0  0  0  0  0  0  0  0  0  0  0
   13.8237    8.1454   -2.2827 H   0  0  0  0  0  0  0  0  0  0  0  0
   11.0418    9.0847   -2.9163 H   0  0  0  0  0  0  0  0  0  0  0  0
   12.5510   10.1460   -2.7837 H   0  0  0  0  0  0  0  0  0  0  0  0
   10.6141    8.5601   -5.0986 H   0  0  0  0  0  0  0  0  0  0  0  0
   11.9837    7.9636   -5.9484 H   0  0  0  0  0  0  0  0  0  0  0  0
   10.6271    6.3617   -3.8537 H   0  0  0  0  0  0  0  0  0  0  0  0
   12.5049    6.2248   -4.1762 H   0  0  0  0  0  0  0  0  0  0  0  0
  1  2  1  0
  2  3  1  0
  3  4  1  0
  4  5  1  0
  5  6  1  0
  6  1  1  0
  1  7  1  0
  1  8  1  0
  2  9  1  0
  2 10  1  0
  3 11  1  0
  3 12  1  0
  5 13  1  0
  5 14  1  0
  6 15  1  0
  6 16  1  0
M  END

>  <ID>
Pocket2Mol_5_num_sample_100

>  <docking_score>
-4.385

$$$$
Pocket2Mol_60_num_sample_100
     RDKit          3D

 19 20  0  0  0  0  0  0  0  0999 V2000
   13.1610    8.5880   -0.9960 O   0  0  0  0  0  0  0  0  0  0  0  0
   12.5840    8.2120   -2.2480 C   0  0  0  0  0  0  0  0  0  0  0  0
   12.1820    6.9330   -2.4490 C   0  0  0  0  0  0  0  0  0  0  0  0
   11.6100    6.5190   -3.7000 C   0  0  0  0  0  0  0  0  0  0  0  0
   11.4410    7.4860   -4.5980 C   0  0  0  0  0  0  0  0  0  0  0  0
   12.0870    8.7740   -4.4750 C   0  0  0  0  0  0  0  0  0  0  0  0
   12.5120    9.1600   -3.2370 C   0  0  0  0  0  0  0  0  0  0  0  0
   12.0990    9.3370   -5.5310 O   0  0  0  0  0  0  0  0  0  0  0  0
   10.9540    9.5070   -6.2010 C   0  0  0  0  0  0  0  0  0  0  0  0
   10.3150    8.2620   -6.4930 C   0  0  0  0  0  0  0  0  0  0  0  0
   11.0650    7.2120   -5.7690 O   0  0  0  0  0  0  0  0  0  0  0  0
   13.3420    9.5420   -0.8000 H   0  0  0  0  0  0  0  0  0  0  0  0
   12.2960    6.1981   -1.6385 H   0  0  0  0  0  0  0  0  0  0  0  0
   11.3309    5.4743   -3.9016 H   0  0  0  0  0  0  0  0  0  0  0  0
   12.7900   10.2054   -3.0371 H   0  0  0  0  0  0  0  0  0  0  0  0
   10.2740   10.1211   -5.5923 H   0  0  0  0  0  0  0  0  0  0  0  0
   11.1887   10.0008   -7.1555 H   0  0  0  0  0  0  0  0  0  0  0  0
    9.2698    8.2841   -6.1507 H   0  0  0  0  0  0  0  0  0  0  0  0
   10.3110    8.0666   -7.5755 H   0  0  0  0  0  0  0  0  0  0  0  0
  1  2  1  0
  2  3  2  0
  3  4  1  0
  4  5  2  0
  5  6  1  0
  6  7  2  0
  6  8  1  0
  8  9  1  0
  9 10  1  0
 10 11  1  0
  7  2  1  0
 11  5  1  0
  1 12  1  0
  3 13  1  0
  4 14  1  0
  7 15  1  0
  9 16  1  0
  9 17  1  0
 10 18  1  0
 10 19  1  0
M  END

>  <ID>
Pocket2Mol_60_num_sample_100

>  <docking_score>
-6.533

$$$$
Pocket2Mol_61_num_sample_100
     RDKit          3D

 18 19  0  0  0  0  0  0  0  0999 V2000
   12.1100    9.5510   -1.5680 O   0  0  0  0  0  0  0  0  0  0  0  0
   12.8700    8.8060   -2.2700 N   0  0  0  0  0  0  0  0  0  0  0  0
   12.4190    8.2810   -3.4990 C   0  0  0  0  0  0  0  0  0  0  0  0
   11.7120    6.9540   -3.5660 C   0  0  0  0  0  0  0  0  0  0  0  0
   11.3080    6.5560   -4.7340 C   0  0  0  0  0  0  0  0  0  0  0  0
   11.0780    7.2370   -5.8420 C   0  0  0  0  0  0  0  0  0  0  0  0
   10.6170    7.0310   -7.0610 O   0  0  0  0  0  0  0  0  0  0  0  0
   10.7100    8.0770   -7.8890 C   0  0  0  0  0  0  0  0  0  0  0  0
   11.4620    9.0490   -7.1600 C   0  0  0  0  0  0  0  0  0  0  0  0
   11.5080    8.5310   -5.6080 C   0  0  0  0  0  0  0  0  0  0  0  0
   12.0370    9.2020   -4.5200 C   0  0  0  0  0  0  0  0  0  0  0  0
   11.2310    9.1110   -1.4510 H   0  0  0  0  0  0  0  0  0  0  0  0
   13.8190    8.5880   -1.9370 H   0  0  0  0  0  0  0  0  0  0  0  0
   11.5447    6.3472   -2.6639 H   0  0  0  0  0  0  0  0  0  0  0  0
   11.1277    5.4738   -4.8138 H   0  0  0  0  0  0  0  0  0  0  0  0
   10.2990    8.1687   -8.9052 H   0  0  0  0  0  0  0  0  0  0  0  0
   11.9197    9.9647   -7.5624 H   0  0  0  0  0  0  0  0  0  0  0  0
   12.1478   10.2942   -4.4514 H   0  0  0  0  0  0  0  0  0  0  0  0
  1  2  1  0
  2  3  1  0
  3  4  2  0
  4  5  1  0
  5  6  2  0
  6  7  1  0
  7  8  1  0
  8  9  2  0
  9 10  1  0
 10 11  2  0
 11  3  1  0
 10  6  1  0
  1 12  1  0
  2 13  1  0
  4 14  1  0
  5 15  1  0
  8 16  1  0
  9 17  1  0
 11 18  1  0
M  END

>  <ID>
Pocket2Mol_61_num_sample_100

>  <docking_score>
-6.615

$$$$
Pocket2Mol_62_num_sample_100
     RDKit          3D

 21 22  0  0  0  0  0  0  0  0999 V2000
    9.5390    6.4180   -7.5340 C   0  0  0  0  0  0  0  0  0  0  0  0
   10.9080    6.5650   -7.3370 O   0  0  0  0  0  0  0  0  0  0  0  0
   11.3310    7.2110   -6.1720 C   0  0  0  0  0  0  0  0  0  0  0  0
   11.5820    8.5890   -6.1050 C   0  0  0  0  0  0  0  0  0  0  0  0
   11.9710    9.3100   -4.9510 C   0  0  0  0  0  0  0  0  0  0  0  0
   12.0980    8.6220   -3.7640 C   0  0  0  0  0  0  0  0  0  0  0  0
   11.7080    7.3020   -3.8950 C   0  0  0  0  0  0  0  0  0  0  0  0
   11.2020    6.5290   -4.9250 C   0  0  0  0  0  0  0  0  0  0  0  0
   12.3840    6.7990   -2.4270 C   0  0  0  0  0  0  0  0  0  0  0  0
   12.5690    7.9370   -1.6810 C   0  0  0  0  0  0  0  0  0  0  0  0
   12.5180    8.9470   -2.5570 O   0  0  0  0  0  0  0  0  0  0  0  0
    9.0321    6.3636   -6.5593 H   0  0  0  0  0  0  0  0  0  0  0  0
    9.1552    7.2801   -8.0993 H   0  0  0  0  0  0  0  0  0  0  0  0
    9.3470    5.4941   -8.0993 H   0  0  0  0  0  0  0  0  0  0  0  0
   11.4657    9.1630   -7.0361 H   0  0  0  0  0  0  0  0  0  0  0  0
   12.1668   10.3913   -5.0004 H   0  0  0  0  0  0  0  0  0  0  0  0
   10.7618    5.5287   -4.8002 H   0  0  0  0  0  0  0  0  0  0  0  0
   11.7008    6.1101   -1.9087 H   0  0  0  0  0  0  0  0  0  0  0  0
   13.3322    6.2642   -2.5845 H   0  0  0  0  0  0  0  0  0  0  0  0
   11.7722    8.0385   -0.9294 H   0  0  0  0  0  0  0  0  0  0  0  0
   13.5230    7.9173   -1.1337 H   0  0  0  0  0  0  0  0  0  0  0  0
  1  2  1  0
  2  3  1  0
  3  4  2  0
  4  5  1  0
  5  6  2  0
  6  7  1  0
  7  8  2  0
  7  9  1  0
  9 10  1  0
 10 11  1  0
  8  3  1  0
 11  6  1  0
  1 12  1  0
  1 13  1  0
  1 14  1  0
  4 15  1  0
  5 16  1  0
  8 17  1  0
  9 18  1  0
  9 19  1  0
 10 20  1  0
 10 21  1  0
M  END

>  <ID>
Pocket2Mol_62_num_sample_100

>  <docking_score>
-6.507

$$$$
Pocket2Mol_63_num_sample_100
     RDKit          3D

 19 20  0  0  0  0  0  0  0  0999 V2000
    9.4760    6.2600   -7.6220 C   0  0  0  0  0  0  0  0  0  0  0  0
   10.8450    6.5180   -7.5090 O   0  0  0  0  0  0  0  0  0  0  0  0
   11.2600    7.2090   -6.3670 C   0  0  0  0  0  0  0  0  0  0  0  0
   11.6440    8.5790   -6.4040 C   0  0  0  0  0  0  0  0  0  0  0  0
   12.0580    9.2970   -5.2270 C   0  0  0  0  0  0  0  0  0  0  0  0
   12.0060    8.7060   -4.0050 C   0  0  0  0  0  0  0  0  0  0  0  0
   12.4310    9.0770   -2.8130 O   0  0  0  0  0  0  0  0  0  0  0  0
   12.5400    8.0910   -1.9150 C   0  0  0  0  0  0  0  0  0  0  0  0
   11.9890    6.9060   -2.5360 C   0  0  0  0  0  0  0  0  0  0  0  0
   11.6700    7.3680   -4.0990 C   0  0  0  0  0  0  0  0  0  0  0  0
   11.1810    6.5510   -5.1020 C   0  0  0  0  0  0  0  0  0  0  0  0
    9.0345    6.1768   -6.6179 H   0  0  0  0  0  0  0  0  0  0  0  0
    8.9917    7.0827   -8.1685 H   0  0  0  0  0  0  0  0  0  0  0  0
    9.3244    5.3175   -8.1685 H   0  0  0  0  0  0  0  0  0  0  0  0
   11.6237    9.1088   -7.3678 H   0  0  0  0  0  0  0  0  0  0  0  0
   12.4192   10.3320   -5.3178 H   0  0  0  0  0  0  0  0  0  0  0  0
   12.9651    8.1665   -0.9033 H   0  0  0  0  0  0  0  0  0  0  0  0
   11.8196    5.9211   -2.0764 H   0  0  0  0  0  0  0  0  0  0  0  0
   10.7863    5.5360   -4.9470 H   0  0  0  0  0  0  0  0  0  0  0  0
  1  2  1  0
  2  3  1  0
  3  4  2  0
  4  5  1  0
  5  6  2  0
  6  7  1  0
  7  8  1  0
  8  9  2  0
  9 10  1  0
 10 11  2  0
 11  3  1  0
 10  6  1  0
  1 12  1  0
  1 13  1  0
  1 14  1  0
  4 15  1  0
  5 16  1  0
  8 17  1  0
  9 18  1  0
 11 19  1  0
M  END

>  <ID>
Pocket2Mol_63_num_sample_100

>  <docking_score>
-6.5

$$$$
Pocket2Mol_64_num_sample_100
     RDKit          3D

 16 17  0  0  0  0  0  0  0  0999 V2000
   12.3330   10.4830   -6.0250 F   0  0  0  0  0  0  0  0  0  0  0  0
   11.9040    9.2800   -5.7660 C   0  0  0  0  0  0  0  0  0  0  0  0
   11.2250    8.5700   -6.6490 C   0  0  0  0  0  0  0  0  0  0  0  0
   10.6660    7.3060   -6.4500 C   0  0  0  0  0  0  0  0  0  0  0  0
   10.9210    6.5710   -5.4170 C   0  0  0  0  0  0  0  0  0  0  0  0
   11.6060    7.1620   -4.3680 C   0  0  0  0  0  0  0  0  0  0  0  0
   11.9530    8.4720   -4.6450 C   0  0  0  0  0  0  0  0  0  0  0  0
   12.7080    9.2190   -3.5170 O   0  0  0  0  0  0  0  0  0  0  0  0
   12.3800    8.7430   -2.3600 C   0  0  0  0  0  0  0  0  0  0  0  0
   12.3140    7.7480   -2.3220 C   0  0  0  0  0  0  0  0  0  0  0  0
   11.8470    6.7860   -3.1270 O   0  0  0  0  0  0  0  0  0  0  0  0
   11.0857    9.0206   -7.6428 H   0  0  0  0  0  0  0  0  0  0  0  0
    9.9736    6.9157   -7.2105 H   0  0  0  0  0  0  0  0  0  0  0  0
   10.6063    5.5179   -5.3730 H   0  0  0  0  0  0  0  0  0  0  0  0
   12.1889    9.3842   -1.4869 H   0  0  0  0  0  0  0  0  0  0  0  0
   12.7273    7.3411   -1.3873 H   0  0  0  0  0  0  0  0  0  0  0  0
  1  2  1  0
  2  3  2  0
  3  4  1  0
  4  5  2  0
  5  6  1  0
  6  7  2  0
  7  8  1  0
  8  9  1  0
  9 10  2  0
 10 11  1  0
  7  2  1  0
 11  6  1  0
  3 12  1  0
  4 13  1  0
  5 14  1  0
  9 15  1  0
 10 16  1  0
M  END

>  <ID>
Pocket2Mol_64_num_sample_100

>  <docking_score>
-6.333

$$$$
Pocket2Mol_65_num_sample_100
     RDKit          3D

 18 19  0  0  0  0  0  0  0  0999 V2000
   13.0430    8.2700   -1.2240 F   0  0  0  0  0  0  0  0  0  0  0  0
   12.6010    8.0180   -2.5140 C   0  0  0  0  0  0  0  0  0  0  0  0
   11.9710    6.8130   -2.7940 C   0  0  0  0  0  0  0  0  0  0  0  0
   11.5340    6.5740   -4.1970 C   0  0  0  0  0  0  0  0  0  0  0  0
   11.3520    7.6970   -4.8880 C   0  0  0  0  0  0  0  0  0  0  0  0
   12.1670    8.7220   -4.6220 C   0  0  0  0  0  0  0  0  0  0  0  0
   12.7290    9.0680   -3.5110 C   0  0  0  0  0  0  0  0  0  0  0  0
   12.4310    9.6610   -5.6590 O   0  0  0  0  0  0  0  0  0  0  0  0
   12.1690    9.0690   -7.0160 C   0  0  0  0  0  0  0  0  0  0  0  0
   11.5160    7.8720   -7.0660 C   0  0  0  0  0  0  0  0  0  0  0  0
   10.8410    7.5420   -5.9600 O   0  0  0  0  0  0  0  0  0  0  0  0
   11.8009    6.0624   -2.0081 H   0  0  0  0  0  0  0  0  0  0  0  0
   11.3773    5.5707   -4.6199 H   0  0  0  0  0  0  0  0  0  0  0  0
   13.2367   10.0291   -3.3422 H   0  0  0  0  0  0  0  0  0  0  0  0
   11.5681    9.7960   -7.5821 H   0  0  0  0  0  0  0  0  0  0  0  0
   13.1673    8.8609   -7.4283 H   0  0  0  0  0  0  0  0  0  0  0  0
   10.8015    7.9095   -7.9015 H   0  0  0  0  0  0  0  0  0  0  0  0
   12.2956    7.1054   -7.1863 H   0  0  0  0  0  0  0  0  0  0  0  0
  1  2  1  0
  2  3  2  0
  3  4  1  0
  4  5  2  0
  5  6  1  0
  6  7  2  0
  6  8  1  0
  8  9  1  0
  9 10  1  0
 10 11  1  0
  7  2  1  0
 11  5  1  0
  3 12  1  0
  4 13  1  0
  7 14  1  0
  9 15  1  0
  9 16  1  0
 10 17  1  0
 10 18  1  0
M  END

>  <ID>
Pocket2Mol_65_num_sample_100

>  <docking_score>
-6.728

$$$$
Pocket2Mol_66_num_sample_100
     RDKit          3D

  8  8  0  0  0  0  0  0  0  0999 V2000
   12.4740    8.7290   -3.0370 C   0  0  0  0  0  0  0  0  0  0  0  0
   12.6170    8.1180   -1.8980 C   0  0  0  0  0  0  0  0  0  0  0  0
   12.3300    6.7150   -2.2610 C   0  0  0  0  0  0  0  0  0  0  0  0
   11.6760    6.8940   -3.6850 C   0  0  0  0  0  0  0  0  0  0  0  0
   11.9630    8.1640   -4.0210 N   0  0  0  0  0  0  0  0  0  0  0  0
   12.8832    8.5378   -0.9167 H   0  0  0  0  0  0  0  0  0  0  0  0
   12.5210    5.7935   -1.6914 H   0  0  0  0  0  0  0  0  0  0  0  0
   11.1140    6.1505   -4.2693 H   0  0  0  0  0  0  0  0  0  0  0  0
  1  2  2  0
  2  3  1  0
  3  4  2  0
  4  5  1  0
  5  1  2  0
  2  6  1  0
  3  7  1  0
  4  8  1  0
M  END

>  <ID>
Pocket2Mol_66_num_sample_100

>  <docking_score>
-3.695

$$$$
Pocket2Mol_67_num_sample_100
     RDKit          3D

 21 22  0  0  0  0  0  0  0  0999 V2000
   12.8510    8.1780   -1.1710 C   0  0  0  0  0  0  0  0  0  0  0  0
   12.4530    8.0340   -2.5010 C   0  0  0  0  0  0  0  0  0  0  0  0
   11.8910    6.7970   -2.9390 C   0  0  0  0  0  0  0  0  0  0  0  0
   11.3990    6.5860   -4.2520 C   0  0  0  0  0  0  0  0  0  0  0  0
   11.4900    7.6930   -5.0540 C   0  0  0  0  0  0  0  0  0  0  0  0
   12.2240    8.8870   -4.6990 C   0  0  0  0  0  0  0  0  0  0  0  0
   12.5540    9.1620   -3.4260 C   0  0  0  0  0  0  0  0  0  0  0  0
   12.4290    9.5550   -5.6710 O   0  0  0  0  0  0  0  0  0  0  0  0
   11.4050    9.9120   -6.4540 C   0  0  0  0  0  0  0  0  0  0  0  0
   10.7050    8.7770   -6.9700 C   0  0  0  0  0  0  0  0  0  0  0  0
   11.2540    7.5850   -6.2870 O   0  0  0  0  0  0  0  0  0  0  0  0
   12.0263    7.8796   -0.5071 H   0  0  0  0  0  0  0  0  0  0  0  0
   13.7258    7.5394   -0.9788 H   0  0  0  0  0  0  0  0  0  0  0  0
   13.1146    9.2285   -0.9788 H   0  0  0  0  0  0  0  0  0  0  0  0
   11.8369    5.9651   -2.2213 H   0  0  0  0  0  0  0  0  0  0  0  0
   10.9843    5.6262   -4.5937 H   0  0  0  0  0  0  0  0  0  0  0  0
   12.8767   10.1628   -3.1031 H   0  0  0  0  0  0  0  0  0  0  0  0
   10.7050   10.5241   -5.8663 H   0  0  0  0  0  0  0  0  0  0  0  0
   11.8096   10.4782   -7.3059 H   0  0  0  0  0  0  0  0  0  0  0  0
    9.6289    8.8698   -6.7619 H   0  0  0  0  0  0  0  0  0  0  0  0
   10.8318    8.6989   -8.0599 H   0  0  0  0  0  0  0  0  0  0  0  0
  1  2  1  0
  2  3  2  0
  3  4  1  0
  4  5  2  0
  5  6  1  0
  6  7  2  0
  6  8  1  0
  8  9  1  0
  9 10  1  0
 10 11  1  0
  7  2  1  0
 11  5  1  0
  1 12  1  0
  1 13  1  0
  1 14  1  0
  3 15  1  0
  4 16  1  0
  7 17  1  0
  9 18  1  0
  9 19  1  0
 10 20  1  0
 10 21  1  0
M  END

>  <ID>
Pocket2Mol_67_num_sample_100

>  <docking_score>
-6.902

$$$$
Pocket2Mol_68_num_sample_100
     RDKit          3D

 19 20  0  0  0  0  0  0  0  0999 V2000
   12.0380   10.1600   -2.2720 O   0  0  0  0  0  0  0  0  0  0  0  0
   11.9080    9.0090   -3.0070 C   0  0  0  0  0  0  0  0  0  0  0  0
   12.0290    7.7380   -2.3710 C   0  0  0  0  0  0  0  0  0  0  0  0
   11.9260    6.5780   -3.1060 C   0  0  0  0  0  0  0  0  0  0  0  0
   11.6150    6.5890   -4.4420 C   0  0  0  0  0  0  0  0  0  0  0  0
   11.3560    7.7900   -5.0360 C   0  0  0  0  0  0  0  0  0  0  0  0
   11.7270    8.9920   -4.3250 C   0  0  0  0  0  0  0  0  0  0  0  0
   11.4690   10.0570   -4.9490 O   0  0  0  0  0  0  0  0  0  0  0  0
   11.8860   10.1190   -6.3660 C   0  0  0  0  0  0  0  0  0  0  0  0
   11.5970    8.8430   -6.9430 C   0  0  0  0  0  0  0  0  0  0  0  0
   10.8990    8.0640   -6.1090 O   0  0  0  0  0  0  0  0  0  0  0  0
   11.3890   10.8990   -2.3890 H   0  0  0  0  0  0  0  0  0  0  0  0
   12.2057    7.6841   -1.2866 H   0  0  0  0  0  0  0  0  0  0  0  0
   12.0984    5.6132   -2.6066 H   0  0  0  0  0  0  0  0  0  0  0  0
   11.5754    5.6537   -5.0197 H   0  0  0  0  0  0  0  0  0  0  0  0
   11.3253   10.9066   -6.8907 H   0  0  0  0  0  0  0  0  0  0  0  0
   12.9572   10.3543   -6.4500 H   0  0  0  0  0  0  0  0  0  0  0  0
   11.0122    8.9929   -7.8625 H   0  0  0  0  0  0  0  0  0  0  0  0
   12.5525    8.3420   -7.1574 H   0  0  0  0  0  0  0  0  0  0  0  0
  1  2  1  0
  2  3  2  0
  3  4  1  0
  4  5  2  0
  5  6  1  0
  6  7  2  0
  7  8  1  0
  8  9  1  0
  9 10  1  0
 10 11  1  0
  7  2  1  0
 11  6  1  0
  1 12  1  0
  3 13  1  0
  4 14  1  0
  5 15  1  0
  9 16  1  0
  9 17  1  0
 10 18  1  0
 10 19  1  0
M  END

>  <ID>
Pocket2Mol_68_num_sample_100

>  <docking_score>
-6.281

$$$$
Pocket2Mol_69_num_sample_100
     RDKit          3D

 18 19  0  0  0  0  0  0  0  0999 V2000
   11.6610    9.3950   -7.9000 F   0  0  0  0  0  0  0  0  0  0  0  0
   11.6570    8.7460   -6.6320 C   0  0  0  0  0  0  0  0  0  0  0  0
   11.1830    7.4340   -6.6920 C   0  0  0  0  0  0  0  0  0  0  0  0
   11.1880    6.6600   -5.3600 C   0  0  0  0  0  0  0  0  0  0  0  0
   11.6780    7.4980   -4.3740 C   0  0  0  0  0  0  0  0  0  0  0  0
   12.0480    8.8290   -4.3190 C   0  0  0  0  0  0  0  0  0  0  0  0
   12.0660    9.4190   -5.5720 C   0  0  0  0  0  0  0  0  0  0  0  0
   12.4590    9.2300   -3.1310 O   0  0  0  0  0  0  0  0  0  0  0  0
   12.5220    8.2740   -2.1980 C   0  0  0  0  0  0  0  0  0  0  0  0
   12.3470    7.1820   -2.2590 C   0  0  0  0  0  0  0  0  0  0  0  0
   11.6480    6.7400   -2.9110 C   0  0  0  0  0  0  0  0  0  0  0  0
   10.8287    6.9820   -7.6302 H   0  0  0  0  0  0  0  0  0  0  0  0
   10.8587    5.6202   -5.2173 H   0  0  0  0  0  0  0  0  0  0  0  0
   12.4228   10.4534   -5.6847 H   0  0  0  0  0  0  0  0  0  0  0  0
   13.5480    8.3539   -1.8095 H   0  0  0  0  0  0  0  0  0  0  0  0
   11.5842    8.5297   -1.6830 H   0  0  0  0  0  0  0  0  0  0  0  0
   12.9352    6.5235   -1.6030 H   0  0  0  0  0  0  0  0  0  0  0  0
   10.9929    5.8949   -2.6529 H   0  0  0  0  0  0  0  0  0  0  0  0
  1  2  1  0
  2  3  2  0
  3  4  1  0
  4  5  2  0
  5  6  1  0
  6  7  2  0
  6  8  1  0
  8  9  1  0
  9 10  1  0
 10 11  2  0
  7  2  1  0
 11  5  1  0
  3 12  1  0
  4 13  1  0
  7 14  1  0
  9 15  1  0
  9 16  1  0
 10 17  1  0
 11 18  1  0
M  END

>  <ID>
Pocket2Mol_69_num_sample_100

>  <docking_score>
-7.452

$$$$
Pocket2Mol_6_num_sample_100
     RDKit          3D

 14 14  0  0  0  0  0  0  0  0999 V2000
    6.3950    4.5330   -1.6250 C   0  0  0  0  0  0  0  0  0  0  0  0
    7.1420    5.4750   -0.9090 C   0  0  0  0  0  0  0  0  0  0  0  0
    6.8820    5.1380    0.5140 O   0  0  0  0  0  0  0  0  0  0  0  0
    7.4080    4.0810    0.9470 C   0  0  0  0  0  0  0  0  0  0  0  0
    7.2230    3.1000   -0.0890 C   0  0  0  0  0  0  0  0  0  0  0  0
    6.3670    3.3580   -0.9860 O   0  0  0  0  0  0  0  0  0  0  0  0
    5.3659    4.9035   -1.7420 H   0  0  0  0  0  0  0  0  0  0  0  0
    6.8657    4.3863   -2.6083 H   0  0  0  0  0  0  0  0  0  0  0  0
    8.2130    5.3833   -1.1426 H   0  0  0  0  0  0  0  0  0  0  0  0
    6.8633    6.5102   -1.1553 H   0  0  0  0  0  0  0  0  0  0  0  0
    8.4796    4.2373    1.1400 H   0  0  0  0  0  0  0  0  0  0  0  0
    6.9522    3.7602    1.8953 H   0  0  0  0  0  0  0  0  0  0  0  0
    8.1930    2.9595   -0.5883 H   0  0  0  0  0  0  0  0  0  0  0  0
    6.8311    2.2122    0.4289 H   0  0  0  0  0  0  0  0  0  0  0  0
  1  2  1  0
  2  3  1  0
  3  4  1  0
  4  5  1  0
  5  6  1  0
  6  1  1  0
  1  7  1  0
  1  8  1  0
  2  9  1  0
  2 10  1  0
  4 11  1  0
  4 12  1  0
  5 13  1  0
  5 14  1  0
M  END

>  <ID>
Pocket2Mol_6_num_sample_100

>  <docking_score>
-3.357

$$$$
Pocket2Mol_70_num_sample_100
     RDKit          3D

 20 21  0  0  0  0  0  0  0  0999 V2000
   12.9510    8.2970   -0.9510 F   0  0  0  0  0  0  0  0  0  0  0  0
   12.4890    8.1120   -2.2860 C   0  0  0  0  0  0  0  0  0  0  0  0
   12.0230    6.8310   -2.6350 C   0  0  0  0  0  0  0  0  0  0  0  0
   11.5140    6.5480   -3.9580 C   0  0  0  0  0  0  0  0  0  0  0  0
   11.5890    7.7290   -4.6740 C   0  0  0  0  0  0  0  0  0  0  0  0
   12.1100    8.9870   -4.4310 C   0  0  0  0  0  0  0  0  0  0  0  0
   12.5230    9.1380   -3.1190 C   0  0  0  0  0  0  0  0  0  0  0  0
   11.9690    9.8360   -5.4320 O   0  0  0  0  0  0  0  0  0  0  0  0
   11.2840    9.3680   -6.4820 C   0  0  0  0  0  0  0  0  0  0  0  0
   10.2070    8.5530   -6.5350 C   0  0  0  0  0  0  0  0  0  0  0  0
   11.0710    7.4950   -6.2210 C   0  0  0  0  0  0  0  0  0  0  0  0
   12.0466    6.0272   -1.8845 H   0  0  0  0  0  0  0  0  0  0  0  0
   11.1395    5.5808   -4.3244 H   0  0  0  0  0  0  0  0  0  0  0  0
   12.8814   10.1167   -2.7673 H   0  0  0  0  0  0  0  0  0  0  0  0
   10.9575   10.2749   -7.0120 H   0  0  0  0  0  0  0  0  0  0  0  0
   12.0308    8.6347   -6.8204 H   0  0  0  0  0  0  0  0  0  0  0  0
    9.4381    8.7585   -5.7757 H   0  0  0  0  0  0  0  0  0  0  0  0
    9.5478    8.5208   -7.4150 H   0  0  0  0  0  0  0  0  0  0  0  0
   10.5365    6.5367   -6.2982 H   0  0  0  0  0  0  0  0  0  0  0  0
   11.9223    7.4673   -6.9171 H   0  0  0  0  0  0  0  0  0  0  0  0
  1  2  1  0
  2  3  2  0
  3  4  1  0
  4  5  2  0
  5  6  1  0
  6  7  2  0
  6  8  1  0
  8  9  1  0
  9 10  1  0
 10 11  1  0
  7  2  1  0
 11  5  1  0
  3 12  1  0
  4 13  1  0
  7 14  1  0
  9 15  1  0
  9 16  1  0
 10 17  1  0
 10 18  1  0
 11 19  1  0
 11 20  1  0
M  END

>  <ID>
Pocket2Mol_70_num_sample_100

>  <docking_score>
-7.279

$$$$
Pocket2Mol_71_num_sample_100
     RDKit          3D

 17 18  0  0  0  0  0  0  0  0999 V2000
   13.0690    8.1900   -0.8410 F   0  0  0  0  0  0  0  0  0  0  0  0
   12.5390    8.0960   -2.1470 C   0  0  0  0  0  0  0  0  0  0  0  0
   12.1840    6.7910   -2.5760 C   0  0  0  0  0  0  0  0  0  0  0  0
   11.6220    6.5750   -3.9000 C   0  0  0  0  0  0  0  0  0  0  0  0
   11.5440    7.8110   -4.5170 C   0  0  0  0  0  0  0  0  0  0  0  0
   12.0440    9.0720   -4.2460 C   0  0  0  0  0  0  0  0  0  0  0  0
   12.4090    9.1800   -2.9010 C   0  0  0  0  0  0  0  0  0  0  0  0
   11.7250    9.9870   -5.1410 O   0  0  0  0  0  0  0  0  0  0  0  0
   10.9130    9.5680   -6.1180 C   0  0  0  0  0  0  0  0  0  0  0  0
   10.5310    8.6970   -6.4730 C   0  0  0  0  0  0  0  0  0  0  0  0
   10.9880    7.6470   -5.9490 N   0  0  0  0  0  0  0  0  0  0  0  0
   12.3351    5.9353   -1.9015 H   0  0  0  0  0  0  0  0  0  0  0  0
   11.3163    5.6099   -4.3302 H   0  0  0  0  0  0  0  0  0  0  0  0
   12.5901   10.1729   -2.4636 H   0  0  0  0  0  0  0  0  0  0  0  0
    9.9995   10.1451   -5.9121 H   0  0  0  0  0  0  0  0  0  0  0  0
   11.7115    9.5948   -6.8740 H   0  0  0  0  0  0  0  0  0  0  0  0
    9.7673    8.6720   -7.2642 H   0  0  0  0  0  0  0  0  0  0  0  0
  1  2  1  0
  2  3  2  0
  3  4  1  0
  4  5  2  0
  5  6  1  0
  6  7  2  0
  6  8  1  0
  8  9  1  0
  9 10  1  0
 10 11  2  0
  7  2  1  0
 11  5  1  0
  3 12  1  0
  4 13  1  0
  7 14  1  0
  9 15  1  0
  9 16  1  0
 10 17  1  0
M  END

>  <ID>
Pocket2Mol_71_num_sample_100

>  <docking_score>
-6.812

$$$$
Pocket2Mol_72_num_sample_100
     RDKit          3D

 18 19  0  0  0  0  0  0  0  0999 V2000
   10.7190    5.9230   -6.8950 F   0  0  0  0  0  0  0  0  0  0  0  0
   11.2720    7.0790   -6.5860 C   0  0  0  0  0  0  0  0  0  0  0  0
   11.5420    8.0330   -7.4050 C   0  0  0  0  0  0  0  0  0  0  0  0
   12.2400    9.2120   -7.2490 C   0  0  0  0  0  0  0  0  0  0  0  0
   12.3620    9.5720   -5.8220 C   0  0  0  0  0  0  0  0  0  0  0  0
   11.7040    8.7590   -4.9990 C   0  0  0  0  0  0  0  0  0  0  0  0
   11.5490    7.4890   -5.3850 C   0  0  0  0  0  0  0  0  0  0  0  0
   11.2240    6.7010   -4.2280 O   0  0  0  0  0  0  0  0  0  0  0  0
   12.0020    6.9510   -3.0700 C   0  0  0  0  0  0  0  0  0  0  0  0
   12.3220    8.2720   -2.9540 C   0  0  0  0  0  0  0  0  0  0  0  0
   11.7420    9.0820   -3.8470 O   0  0  0  0  0  0  0  0  0  0  0  0
   11.1418    7.8802   -8.4182 H   0  0  0  0  0  0  0  0  0  0  0  0
   12.6517    9.8061   -8.0782 H   0  0  0  0  0  0  0  0  0  0  0  0
   12.9452   10.4358   -5.4703 H   0  0  0  0  0  0  0  0  0  0  0  0
   11.4296    6.6434   -2.1825 H   0  0  0  0  0  0  0  0  0  0  0  0
   12.9368    6.3773   -3.1538 H   0  0  0  0  0  0  0  0  0  0  0  0
   12.0252    8.6064   -1.9490 H   0  0  0  0  0  0  0  0  0  0  0  0
   13.4040    8.3400   -3.1399 H   0  0  0  0  0  0  0  0  0  0  0  0
  1  2  1  0
  2  3  2  0
  3  4  1  0
  4  5  2  0
  5  6  1  0
  6  7  2  0
  7  8  1  0
  8  9  1  0
  9 10  1  0
 10 11  1  0
  7  2  1  0
 11  6  1  0
  3 12  1  0
  4 13  1  0
  5 14  1  0
  9 15  1  0
  9 16  1  0
 10 17  1  0
 10 18  1  0
M  END

>  <ID>
Pocket2Mol_72_num_sample_100

>  <docking_score>
-6.162

$$$$
Pocket2Mol_73_num_sample_100
     RDKit          3D

 20 21  0  0  0  0  0  0  0  0999 V2000
   12.4200    9.1930   -1.0940 O   0  0  0  0  0  0  0  0  0  0  0  0
   12.6180    8.1650   -1.7180 N   0  0  0  0  0  0  0  0  0  0  0  0
   12.2250    7.9660   -3.1070 C   0  0  0  0  0  0  0  0  0  0  0  0
   11.6670    6.7890   -3.5130 C   0  0  0  0  0  0  0  0  0  0  0  0
   11.2720    6.5930   -4.9210 C   0  0  0  0  0  0  0  0  0  0  0  0
   11.2640    7.6530   -5.6910 C   0  0  0  0  0  0  0  0  0  0  0  0
   11.9000    8.7670   -5.1750 C   0  0  0  0  0  0  0  0  0  0  0  0
   12.3720    9.1330   -3.9270 C   0  0  0  0  0  0  0  0  0  0  0  0
   12.0430    9.6300   -6.4580 C   0  0  0  0  0  0  0  0  0  0  0  0
   11.4030    8.8510   -7.5820 C   0  0  0  0  0  0  0  0  0  0  0  0
   10.9720    7.7390   -6.9750 O   0  0  0  0  0  0  0  0  0  0  0  0
   11.6790    9.0520   -0.4530 H   0  0  0  0  0  0  0  0  0  0  0  0
   13.0920    7.3900   -1.2350 H   0  0  0  0  0  0  0  0  0  0  0  0
   11.5103    5.9796   -2.7847 H   0  0  0  0  0  0  0  0  0  0  0  0
   10.9964    5.6006   -5.3072 H   0  0  0  0  0  0  0  0  0  0  0  0
   12.7747   10.1118   -3.6274 H   0  0  0  0  0  0  0  0  0  0  0  0
   11.5297   10.5938   -6.3251 H   0  0  0  0  0  0  0  0  0  0  0  0
   13.1004    9.8404   -6.6760 H   0  0  0  0  0  0  0  0  0  0  0  0
   10.5646    9.4105   -8.0225 H   0  0  0  0  0  0  0  0  0  0  0  0
   12.0926    8.6489   -8.4148 H   0  0  0  0  0  0  0  0  0  0  0  0
  1  2  1  0
  2  3  1  0
  3  4  2  0
  4  5  1  0
  5  6  2  0
  6  7  1  0
  7  8  2  0
  7  9  1  0
  9 10  1  0
 10 11  1  0
  8  3  1  0
 11  6  1  0
  1 12  1  0
  2 13  1  0
  4 14  1  0
  5 15  1  0
  8 16  1  0
  9 17  1  0
  9 18  1  0
 10 19  1  0
 10 20  1  0
M  END

>  <ID>
Pocket2Mol_73_num_sample_100

>  <docking_score>
-6.571

$$$$
Pocket2Mol_74_num_sample_100
     RDKit          3D

 20 21  0  0  0  0  0  0  0  0999 V2000
   10.5670    6.2850   -6.2810 O   0  0  0  0  0  0  0  0  0  0  0  0
   10.9990    7.4180   -5.9810 C   0  0  0  0  0  0  0  0  0  0  0  0
   10.6440    8.6280   -6.4720 O   0  0  0  0  0  0  0  0  0  0  0  0
   11.5140    9.4790   -7.0260 C   0  0  0  0  0  0  0  0  0  0  0  0
   12.4640    9.9040   -6.0910 C   0  0  0  0  0  0  0  0  0  0  0  0
   11.7130    9.9630   -4.8110 O   0  0  0  0  0  0  0  0  0  0  0  0
   11.9780    8.8870   -3.9330 C   0  0  0  0  0  0  0  0  0  0  0  0
   12.4300    9.0720   -2.8080 C   0  0  0  0  0  0  0  0  0  0  0  0
   12.5030    7.9230   -1.9800 C   0  0  0  0  0  0  0  0  0  0  0  0
   12.1100    6.6920   -2.4530 C   0  0  0  0  0  0  0  0  0  0  0  0
   11.6330    6.5990   -3.6710 C   0  0  0  0  0  0  0  0  0  0  0  0
   11.6500    7.5900   -4.5340 C   0  0  0  0  0  0  0  0  0  0  0  0
   12.0283    8.9765   -7.8585 H   0  0  0  0  0  0  0  0  0  0  0  0
   10.9616   10.3583   -7.3889 H   0  0  0  0  0  0  0  0  0  0  0  0
   13.2941    9.1853   -6.0237 H   0  0  0  0  0  0  0  0  0  0  0  0
   12.9168   10.8699   -6.3592 H   0  0  0  0  0  0  0  0  0  0  0  0
   12.7573   10.0642   -2.4638 H   0  0  0  0  0  0  0  0  0  0  0  0
   12.8773    8.0167   -0.9499 H   0  0  0  0  0  0  0  0  0  0  0  0
   12.1948    5.7979   -1.8179 H   0  0  0  0  0  0  0  0  0  0  0  0
   11.1954    5.6406   -3.9871 H   0  0  0  0  0  0  0  0  0  0  0  0
  1  2  2  0
  2  3  1  0
  3  4  1  0
  4  5  1  0
  5  6  1  0
  6  7  1  0
  7  8  2  0
  8  9  1  0
  9 10  2  0
 10 11  1  0
 11 12  2  0
 12  2  1  0
 12  7  1  0
  4 13  1  0
  4 14  1  0
  5 15  1  0
  5 16  1  0
  8 17  1  0
  9 18  1  0
 10 19  1  0
 11 20  1  0
M  END

>  <ID>
Pocket2Mol_74_num_sample_100

>  <docking_score>
-7.4

$$$$
Pocket2Mol_75_num_sample_100
     RDKit          3D

 17 18  0  0  0  0  0  0  0  0999 V2000
   10.1930    5.8250   -7.7730 O   0  0  0  0  0  0  0  0  0  0  0  0
   10.7390    6.8500   -7.7670 N   0  0  0  0  0  0  0  0  0  0  0  0
   11.0000    7.3610   -8.8730 O   0  0  0  0  0  0  0  0  0  0  0  0
   11.2680    7.3870   -6.5810 C   0  0  0  0  0  0  0  0  0  0  0  0
   11.7210    8.7940   -6.4450 C   0  0  0  0  0  0  0  0  0  0  0  0
   12.0730    9.3690   -5.2710 C   0  0  0  0  0  0  0  0  0  0  0  0
   12.0300    8.6580   -4.0950 C   0  0  0  0  0  0  0  0  0  0  0  0
   12.4500    8.9150   -2.8710 O   0  0  0  0  0  0  0  0  0  0  0  0
   12.5070    7.8560   -2.0560 C   0  0  0  0  0  0  0  0  0  0  0  0
   12.0210    6.7180   -2.7770 C   0  0  0  0  0  0  0  0  0  0  0  0
   11.6460    7.3460   -4.3020 C   0  0  0  0  0  0  0  0  0  0  0  0
   11.1440    6.6330   -5.3760 C   0  0  0  0  0  0  0  0  0  0  0  0
   11.7741    9.4084   -7.3559 H   0  0  0  0  0  0  0  0  0  0  0  0
   12.3980   10.4198   -5.2578 H   0  0  0  0  0  0  0  0  0  0  0  0
   12.8641    7.8587   -1.0156 H   0  0  0  0  0  0  0  0  0  0  0  0
   11.9165    5.6818   -2.4231 H   0  0  0  0  0  0  0  0  0  0  0  0
   10.7095    5.6246   -5.3101 H   0  0  0  0  0  0  0  0  0  0  0  0
  1  2  2  0
  2  3  1  0
  2  4  1  0
  4  5  2  0
  5  6  1  0
  6  7  2  0
  7  8  1  0
  8  9  1  0
  9 10  2  0
 10 11  1  0
 11 12  2  0
 12  4  1  0
 11  7  1  0
  5 13  1  0
  6 14  1  0
  9 15  1  0
 10 16  1  0
 12 17  1  0
M  CHG  2   2   1   3  -1
M  END

>  <ID>
Pocket2Mol_75_num_sample_100

>  <docking_score>
-6.855

$$$$
Pocket2Mol_76_num_sample_100
     RDKit          3D

 20 21  0  0  0  0  0  0  0  0999 V2000
    8.7080    6.9550  -10.3180 O   0  0  0  0  0  0  0  0  0  0  0  0
    9.7310    7.5260   -9.5290 C   0  0  0  0  0  0  0  0  0  0  0  0
   10.9060    7.6550   -9.9460 C   0  0  0  0  0  0  0  0  0  0  0  0
   12.0390    8.2640   -9.3080 C   0  0  0  0  0  0  0  0  0  0  0  0
   13.2780    8.4420   -9.8690 O   0  0  0  0  0  0  0  0  0  0  0  0
   11.7230    8.6560   -8.0770 C   0  0  0  0  0  0  0  0  0  0  0  0
   10.4980    8.2460   -7.4280 C   0  0  0  0  0  0  0  0  0  0  0  0
    9.4670    7.8250   -8.2170 C   0  0  0  0  0  0  0  0  0  0  0  0
   10.5820    8.3980   -6.2440 O   0  0  0  0  0  0  0  0  0  0  0  0
   10.9330    9.5920   -5.7550 C   0  0  0  0  0  0  0  0  0  0  0  0
   12.2120   10.0130   -6.2380 C   0  0  0  0  0  0  0  0  0  0  0  0
   12.6180    9.0460   -7.2800 O   0  0  0  0  0  0  0  0  0  0  0  0
    8.8160    6.0400  -10.6830 H   0  0  0  0  0  0  0  0  0  0  0  0
   11.0971    7.2411  -10.9471 H   0  0  0  0  0  0  0  0  0  0  0  0
   13.5580    9.3420  -10.1760 H   0  0  0  0  0  0  0  0  0  0  0  0
    8.4495    7.7279   -7.8105 H   0  0  0  0  0  0  0  0  0  0  0  0
   10.1783   10.3343   -6.0541 H   0  0  0  0  0  0  0  0  0  0  0  0
   10.9942    9.5065   -4.6600 H   0  0  0  0  0  0  0  0  0  0  0  0
   12.1403   11.0233   -6.6670 H   0  0  0  0  0  0  0  0  0  0  0  0
   12.9494   10.0452   -5.4224 H   0  0  0  0  0  0  0  0  0  0  0  0
  1  2  1  0
  2  3  2  0
  3  4  1  0
  4  5  1  0
  4  6  2  0
  6  7  1  0
  7  8  2  0
  7  9  1  0
  9 10  1  0
 10 11  1  0
 11 12  1  0
  8  2  1  0
 12  6  1  0
  1 13  1  0
  3 14  1  0
  5 15  1  0
  8 16  1  0
 10 17  1  0
 10 18  1  0
 11 19  1  0
 11 20  1  0
M  END

>  <ID>
Pocket2Mol_76_num_sample_100

>  <docking_score>
-6.062

$$$$
Pocket2Mol_77_num_sample_100
     RDKit          3D

 11 11  0  0  0  0  0  0  0  0999 V2000
   12.6030    8.1220   -2.0060 C   0  0  0  0  0  0  0  0  0  0  0  0
   12.3680    8.8960   -3.1480 C   0  0  0  0  0  0  0  0  0  0  0  0
   11.9070    8.1410   -4.1510 O   0  0  0  0  0  0  0  0  0  0  0  0
   11.6760    6.8390   -3.6150 C   0  0  0  0  0  0  0  0  0  0  0  0
   12.3580    6.6800   -2.3070 C   0  0  0  0  0  0  0  0  0  0  0  0
   12.9213    8.5176   -1.0302 H   0  0  0  0  0  0  0  0  0  0  0  0
   12.5396    9.9806   -3.2121 H   0  0  0  0  0  0  0  0  0  0  0  0
   10.5945    6.6918   -3.4782 H   0  0  0  0  0  0  0  0  0  0  0  0
   12.0780    6.0924   -4.3157 H   0  0  0  0  0  0  0  0  0  0  0  0
   11.7090    6.2048   -1.5567 H   0  0  0  0  0  0  0  0  0  0  0  0
   13.2492    6.0352   -2.3091 H   0  0  0  0  0  0  0  0  0  0  0  0
  1  2  2  0
  2  3  1  0
  3  4  1  0
  4  5  1  0
  5  1  1  0
  1  6  1  0
  2  7  1  0
  4  8  1  0
  4  9  1  0
  5 10  1  0
  5 11  1  0
M  END

>  <ID>
Pocket2Mol_77_num_sample_100

>  <docking_score>
-3.758

$$$$
Pocket2Mol_78_num_sample_100
     RDKit          3D

 22 23  0  0  0  0  0  0  0  0999 V2000
    9.6870    5.9210   -7.9870 C   0  0  0  0  0  0  0  0  0  0  0  0
   10.7330    5.9030   -7.1300 O   0  0  0  0  0  0  0  0  0  0  0  0
   11.2420    7.1770   -6.7900 C   0  0  0  0  0  0  0  0  0  0  0  0
   11.4770    8.2210   -7.7450 C   0  0  0  0  0  0  0  0  0  0  0  0
   12.0510    9.4310   -7.3310 C   0  0  0  0  0  0  0  0  0  0  0  0
   12.2500    9.7730   -5.9340 C   0  0  0  0  0  0  0  0  0  0  0  0
   11.8350    8.8180   -5.0520 C   0  0  0  0  0  0  0  0  0  0  0  0
   11.3790    7.5070   -5.4530 C   0  0  0  0  0  0  0  0  0  0  0  0
   10.9910    6.7850   -4.4950 O   0  0  0  0  0  0  0  0  0  0  0  0
   11.8770    6.7090   -3.3140 C   0  0  0  0  0  0  0  0  0  0  0  0
   12.3760    8.0280   -3.0810 C   0  0  0  0  0  0  0  0  0  0  0  0
   11.7770    8.9350   -3.8620 O   0  0  0  0  0  0  0  0  0  0  0  0
    8.7463    5.9372   -7.4171 H   0  0  0  0  0  0  0  0  0  0  0  0
    9.7474    6.8182   -8.6205 H   0  0  0  0  0  0  0  0  0  0  0  0
    9.7165    5.0222   -8.6205 H   0  0  0  0  0  0  0  0  0  0  0  0
   11.2071    8.0723   -8.8010 H   0  0  0  0  0  0  0  0  0  0  0  0
   12.3647   10.1536   -8.0987 H   0  0  0  0  0  0  0  0  0  0  0  0
   12.6988   10.7245   -5.6127 H   0  0  0  0  0  0  0  0  0  0  0  0
   11.3104    6.3592   -2.4384 H   0  0  0  0  0  0  0  0  0  0  0  0
   12.7017    6.0018   -3.4865 H   0  0  0  0  0  0  0  0  0  0  0  0
   12.1997    8.2938   -2.0282 H   0  0  0  0  0  0  0  0  0  0  0  0
   13.4503    8.0320   -3.3174 H   0  0  0  0  0  0  0  0  0  0  0  0
  1  2  1  0
  2  3  1  0
  3  4  2  0
  4  5  1  0
  5  6  2  0
  6  7  1  0
  7  8  2  0
  8  9  1  0
  9 10  1  0
 10 11  1  0
 11 12  1  0
  8  3  1  0
 12  7  1  0
  1 13  1  0
  1 14  1  0
  1 15  1  0
  4 16  1  0
  5 17  1  0
  6 18  1  0
 10 19  1  0
 10 20  1  0
 11 21  1  0
 11 22  1  0
M  END

>  <ID>
Pocket2Mol_78_num_sample_100

>  <docking_score>
-5.905

$$$$
Pocket2Mol_79_num_sample_100
     RDKit          3D

 24 25  0  0  0  0  0  0  0  0999 V2000
   12.1540   10.4080   -6.4790 C   0  0  0  0  0  0  0  0  0  0  0  0
   11.7220    9.0670   -6.1620 C   0  0  0  0  0  0  0  0  0  0  0  0
   10.8190    8.3890   -7.1040 C   0  0  0  0  0  0  0  0  0  0  0  0
   10.4850    7.1350   -6.8370 C   0  0  0  0  0  0  0  0  0  0  0  0
   10.7820    6.5340   -5.6550 C   0  0  0  0  0  0  0  0  0  0  0  0
   11.5730    7.1690   -4.7600 C   0  0  0  0  0  0  0  0  0  0  0  0
   11.9240    8.5310   -5.0780 C   0  0  0  0  0  0  0  0  0  0  0  0
   12.7480    9.1310   -4.0980 O   0  0  0  0  0  0  0  0  0  0  0  0
   12.0610    9.4050   -2.8100 C   0  0  0  0  0  0  0  0  0  0  0  0
   12.5240    8.3980   -1.9550 C   0  0  0  0  0  0  0  0  0  0  0  0
   12.7280    7.2580   -2.6240 O   0  0  0  0  0  0  0  0  0  0  0  0
   11.7360    6.5670   -3.2310 C   0  0  0  0  0  0  0  0  0  0  0  0
   12.3335   10.9652   -5.5477 H   0  0  0  0  0  0  0  0  0  0  0  0
   13.0837   10.3647   -7.0654 H   0  0  0  0  0  0  0  0  0  0  0  0
   11.3739   10.9155   -7.0654 H   0  0  0  0  0  0  0  0  0  0  0  0
   10.4351    8.9038   -7.9971 H   0  0  0  0  0  0  0  0  0  0  0  0
    9.9459    6.5575   -7.6024 H   0  0  0  0  0  0  0  0  0  0  0  0
   10.3809    5.5354   -5.4269 H   0  0  0  0  0  0  0  0  0  0  0  0
   12.3334   10.3991   -2.4259 H   0  0  0  0  0  0  0  0  0  0  0  0
   10.9653    9.4051   -2.9076 H   0  0  0  0  0  0  0  0  0  0  0  0
   13.4709    8.7213   -1.4979 H   0  0  0  0  0  0  0  0  0  0  0  0
   11.7638    8.2188   -1.1804 H   0  0  0  0  0  0  0  0  0  0  0  0
   11.9946    5.4987   -3.2739 H   0  0  0  0  0  0  0  0  0  0  0  0
   10.7943    6.6708   -2.6721 H   0  0  0  0  0  0  0  0  0  0  0  0
  1  2  1  0
  2  3  2  0
  3  4  1  0
  4  5  2  0
  5  6  1  0
  6  7  2  0
  7  8  1  0
  8  9  1  0
  9 10  1  0
 10 11  1  0
 11 12  1  0
  7  2  1  0
 12  6  1  0
  1 13  1  0
  1 14  1  0
  1 15  1  0
  3 16  1  0
  4 17  1  0
  5 18  1  0
  9 19  1  0
  9 20  1  0
 10 21  1  0
 10 22  1  0
 12 23  1  0
 12 24  1  0
M  END

>  <ID>
Pocket2Mol_79_num_sample_100

>  <docking_score>
-6.825

$$$$
Pocket2Mol_7_num_sample_100
     RDKit          3D

 11 11  0  0  0  0  0  0  0  0999 V2000
   11.9950    6.6940   -2.6980 C   0  0  0  0  0  0  0  0  0  0  0  0
   12.4000    7.7920   -2.0320 C   0  0  0  0  0  0  0  0  0  0  0  0
   12.5050    8.8900   -2.7210 C   0  0  0  0  0  0  0  0  0  0  0  0
   12.1200    8.9580   -3.9030 N   0  0  0  0  0  0  0  0  0  0  0  0
   11.6460    7.9840   -4.5960 C   0  0  0  0  0  0  0  0  0  0  0  0
   11.5750    6.7160   -3.9600 C   0  0  0  0  0  0  0  0  0  0  0  0
   12.0124    5.7286   -2.1711 H   0  0  0  0  0  0  0  0  0  0  0  0
   12.6309    7.7617   -0.9569 H   0  0  0  0  0  0  0  0  0  0  0  0
   12.9447    9.7804   -2.2479 H   0  0  0  0  0  0  0  0  0  0  0  0
   11.3108    8.1263   -5.6340 H   0  0  0  0  0  0  0  0  0  0  0  0
   11.2003    5.8182   -4.4733 H   0  0  0  0  0  0  0  0  0  0  0  0
  1  2  2  0
  2  3  1  0
  3  4  2  0
  4  5  1  0
  5  6  2  0
  6  1  1  0
  1  7  1  0
  2  8  1  0
  3  9  1  0
  5 10  1  0
  6 11  1  0
M  END

>  <ID>
Pocket2Mol_7_num_sample_100

>  <docking_score>
-4.346

$$$$
Pocket2Mol_80_num_sample_100
     RDKit          3D

 19 20  0  0  0  0  0  0  0  0999 V2000
   11.0720    7.4200   -8.7310 O   0  0  0  0  0  0  0  0  0  0  0  0
   10.7920    6.8470   -7.7220 N   0  0  0  0  0  0  0  0  0  0  0  0
   10.0390    5.8620   -7.6290 O   0  0  0  0  0  0  0  0  0  0  0  0
   11.2970    7.4350   -6.4820 C   0  0  0  0  0  0  0  0  0  0  0  0
   11.5800    8.7960   -6.4080 C   0  0  0  0  0  0  0  0  0  0  0  0
   12.0400    9.4670   -5.1480 C   0  0  0  0  0  0  0  0  0  0  0  0
   12.0370    8.6660   -4.0400 C   0  0  0  0  0  0  0  0  0  0  0  0
   11.6760    7.3480   -4.2540 C   0  0  0  0  0  0  0  0  0  0  0  0
   11.2230    6.6230   -5.3420 C   0  0  0  0  0  0  0  0  0  0  0  0
   11.8820    6.7570   -2.8080 C   0  0  0  0  0  0  0  0  0  0  0  0
   12.4450    7.8810   -1.9800 C   0  0  0  0  0  0  0  0  0  0  0  0
   12.4070    8.9340   -2.8030 O   0  0  0  0  0  0  0  0  0  0  0  0
   11.4608    9.4071   -7.3149 H   0  0  0  0  0  0  0  0  0  0  0  0
   12.3550   10.5205   -5.1177 H   0  0  0  0  0  0  0  0  0  0  0  0
   10.8647    5.5833   -5.3165 H   0  0  0  0  0  0  0  0  0  0  0  0
   10.9213    6.4193   -2.3921 H   0  0  0  0  0  0  0  0  0  0  0  0
   12.5549    5.8869   -2.8191 H   0  0  0  0  0  0  0  0  0  0  0  0
   11.8263    8.0584   -1.0879 H   0  0  0  0  0  0  0  0  0  0  0  0
   13.4581    7.6687   -1.6076 H   0  0  0  0  0  0  0  0  0  0  0  0
  1  2  2  0
  2  3  1  0
  2  4  1  0
  4  5  2  0
  5  6  1  0
  6  7  2  0
  7  8  1  0
  8  9  2  0
  8 10  1  0
 10 11  1  0
 11 12  1  0
  9  4  1  0
 12  7  1  0
  5 13  1  0
  6 14  1  0
  9 15  1  0
 10 16  1  0
 10 17  1  0
 11 18  1  0
 11 19  1  0
M  CHG  2   2   1   3  -1
M  END

>  <ID>
Pocket2Mol_80_num_sample_100

>  <docking_score>
-6.804

$$$$
Pocket2Mol_81_num_sample_100
     RDKit          3D

 20 21  0  0  0  0  0  0  0  0999 V2000
   12.1480    9.7590   -1.9680 O   0  0  0  0  0  0  0  0  0  0  0  0
   11.8650    8.9160   -3.0790 C   0  0  0  0  0  0  0  0  0  0  0  0
   12.2150    7.5140   -2.9450 C   0  0  0  0  0  0  0  0  0  0  0  0
   11.7570    6.5700   -3.8990 C   0  0  0  0  0  0  0  0  0  0  0  0
   11.3430    7.1580   -5.1350 C   0  0  0  0  0  0  0  0  0  0  0  0
   11.1670    8.5860   -5.2720 C   0  0  0  0  0  0  0  0  0  0  0  0
   11.3850    9.4210   -4.1390 C   0  0  0  0  0  0  0  0  0  0  0  0
   11.1190   10.7750   -4.2440 O   0  0  0  0  0  0  0  0  0  0  0  0
   10.4080    8.9200   -6.2220 O   0  0  0  0  0  0  0  0  0  0  0  0
   10.6560    8.2800   -7.5320 C   0  0  0  0  0  0  0  0  0  0  0  0
   10.9470    6.9040   -7.2750 C   0  0  0  0  0  0  0  0  0  0  0  0
   10.7420    6.5800   -5.9930 O   0  0  0  0  0  0  0  0  0  0  0  0
   11.8590    9.4920   -1.0590 H   0  0  0  0  0  0  0  0  0  0  0  0
   12.8375    7.1825   -2.1008 H   0  0  0  0  0  0  0  0  0  0  0  0
   11.7234    5.4875   -3.7064 H   0  0  0  0  0  0  0  0  0  0  0  0
   11.8640   11.4210   -4.3330 H   0  0  0  0  0  0  0  0  0  0  0  0
    9.7634    8.3650   -8.1693 H   0  0  0  0  0  0  0  0  0  0  0  0
   11.4915    8.7674   -8.0558 H   0  0  0  0  0  0  0  0  0  0  0  0
   10.2987    6.2796   -7.9073 H   0  0  0  0  0  0  0  0  0  0  0  0
   12.0093    6.7326   -7.5035 H   0  0  0  0  0  0  0  0  0  0  0  0
  1  2  1  0
  2  3  2  0
  3  4  1  0
  4  5  2  0
  5  6  1  0
  6  7  2  0
  7  8  1  0
  6  9  1  0
  9 10  1  0
 10 11  1  0
 11 12  1  0
  7  2  1  0
 12  5  1  0
  1 13  1  0
  3 14  1  0
  4 15  1  0
  8 16  1  0
 10 17  1  0
 10 18  1  0
 11 19  1  0
 11 20  1  0
M  END

>  <ID>
Pocket2Mol_81_num_sample_100

>  <docking_score>
-6.393

$$$$
Pocket2Mol_82_num_sample_100
     RDKit          3D

 22 23  0  0  0  0  0  0  0  0999 V2000
    9.4440    6.2880   -7.5080 C   0  0  0  0  0  0  0  0  0  0  0  0
   10.7560    6.5980   -7.5790 O   0  0  0  0  0  0  0  0  0  0  0  0
   11.2490    7.3100   -6.3980 C   0  0  0  0  0  0  0  0  0  0  0  0
   11.2310    6.5910   -5.1920 C   0  0  0  0  0  0  0  0  0  0  0  0
   11.6650    7.4240   -4.1760 C   0  0  0  0  0  0  0  0  0  0  0  0
   11.9940    8.7640   -4.0840 C   0  0  0  0  0  0  0  0  0  0  0  0
   12.0140    9.3260   -5.4150 C   0  0  0  0  0  0  0  0  0  0  0  0
   11.6160    8.5330   -6.5920 C   0  0  0  0  0  0  0  0  0  0  0  0
   11.5330    9.1020   -7.8170 O   0  0  0  0  0  0  0  0  0  0  0  0
   12.3560    9.1530   -2.8770 O   0  0  0  0  0  0  0  0  0  0  0  0
   12.4190    8.1810   -1.9610 C   0  0  0  0  0  0  0  0  0  0  0  0
   11.9640    6.9590   -2.7240 C   0  0  0  0  0  0  0  0  0  0  0  0
    9.1407    6.2163   -6.4531 H   0  0  0  0  0  0  0  0  0  0  0  0
    8.8546    7.0716   -8.0065 H   0  0  0  0  0  0  0  0  0  0  0  0
    9.2676    5.3235   -8.0065 H   0  0  0  0  0  0  0  0  0  0  0  0
   10.9234    5.5414   -5.0746 H   0  0  0  0  0  0  0  0  0  0  0  0
   12.3335   10.3695   -5.5530 H   0  0  0  0  0  0  0  0  0  0  0  0
   12.3330    9.5230   -8.2220 H   0  0  0  0  0  0  0  0  0  0  0  0
   13.4468    8.0545   -1.5899 H   0  0  0  0  0  0  0  0  0  0  0  0
   11.8070    8.3866   -1.0704 H   0  0  0  0  0  0  0  0  0  0  0  0
   12.7568    6.1965   -2.7259 H   0  0  0  0  0  0  0  0  0  0  0  0
   11.0720    6.5128   -2.2602 H   0  0  0  0  0  0  0  0  0  0  0  0
  1  2  1  0
  2  3  1  0
  3  4  2  0
  4  5  1  0
  5  6  2  0
  6  7  1  0
  7  8  2  0
  8  9  1  0
  6 10  1  0
 10 11  1  0
 11 12  1  0
  8  3  1  0
 12  5  1  0
  1 13  1  0
  1 14  1  0
  1 15  1  0
  4 16  1  0
  7 17  1  0
  9 18  1  0
 11 19  1  0
 11 20  1  0
 12 21  1  0
 12 22  1  0
M  END

>  <ID>
Pocket2Mol_82_num_sample_100

>  <docking_score>
-6.562

$$$$
Pocket2Mol_83_num_sample_100
     RDKit          3D

 21 22  0  0  0  0  0  0  0  0999 V2000
   12.7450    9.2240   -3.1810 O   0  0  0  0  0  0  0  0  0  0  0  0
   11.8490    9.4790   -4.0480 N   0  0  0  0  0  0  0  0  0  0  0  0
   11.1190   10.6340   -3.7900 O   0  0  0  0  0  0  0  0  0  0  0  0
   11.6390    8.7170   -5.2720 C   0  0  0  0  0  0  0  0  0  0  0  0
   11.3110    7.3860   -5.2430 C   0  0  0  0  0  0  0  0  0  0  0  0
   11.1090    6.6240   -6.4660 C   0  0  0  0  0  0  0  0  0  0  0  0
   11.0140    7.3080   -7.5800 C   0  0  0  0  0  0  0  0  0  0  0  0
   11.4090    8.6310   -7.5000 C   0  0  0  0  0  0  0  0  0  0  0  0
   11.6850    9.5080   -6.4670 C   0  0  0  0  0  0  0  0  0  0  0  0
   11.5460    8.9760   -9.0080 C   0  0  0  0  0  0  0  0  0  0  0  0
   11.1570    7.7350   -9.7770 C   0  0  0  0  0  0  0  0  0  0  0  0
   10.8470    6.8640   -8.8100 O   0  0  0  0  0  0  0  0  0  0  0  0
   12.3770    9.3610   -2.2740 H   0  0  0  0  0  0  0  0  0  0  0  0
   11.2430   11.2750   -4.5340 H   0  0  0  0  0  0  0  0  0  0  0  0
   11.1978    6.8821   -4.2718 H   0  0  0  0  0  0  0  0  0  0  0  0
   11.0393    5.5263   -6.4561 H   0  0  0  0  0  0  0  0  0  0  0  0
   11.8954   10.5848   -6.5455 H   0  0  0  0  0  0  0  0  0  0  0  0
   10.8758    9.8084   -9.2684 H   0  0  0  0  0  0  0  0  0  0  0  0
   12.5736    9.2846   -9.2505 H   0  0  0  0  0  0  0  0  0  0  0  0
   10.2908    7.9284  -10.4269 H   0  0  0  0  0  0  0  0  0  0  0  0
   11.9520    7.3737  -10.4460 H   0  0  0  0  0  0  0  0  0  0  0  0
  1  2  1  0
  2  3  1  0
  2  4  1  0
  4  5  2  0
  5  6  1  0
  6  7  2  0
  7  8  1  0
  8  9  2  0
  8 10  1  0
 10 11  1  0
 11 12  1  0
  9  4  1  0
 12  7  1  0
  1 13  1  0
  3 14  1  0
  5 15  1  0
  6 16  1  0
  9 17  1  0
 10 18  1  0
 10 19  1  0
 11 20  1  0
 11 21  1  0
M  END

>  <ID>
Pocket2Mol_83_num_sample_100

>  <docking_score>
-6.595

$$$$
Pocket2Mol_84_num_sample_100
     RDKit          3D

 23 24  0  0  0  0  0  0  0  0999 V2000
   12.4400    7.7130   -1.9770 C   0  0  0  0  0  0  0  0  0  0  0  0
   12.0470    8.6500   -2.8780 N   0  0  0  0  0  0  0  0  0  0  0  0
   11.9890    9.9240   -2.6310 O   0  0  0  0  0  0  0  0  0  0  0  0
   11.8680    8.1790   -4.2500 C   0  0  0  0  0  0  0  0  0  0  0  0
   11.3790    6.8590   -4.5590 C   0  0  0  0  0  0  0  0  0  0  0  0
   11.1400    6.3940   -6.0450 C   0  0  0  0  0  0  0  0  0  0  0  0
   11.2670    7.3090   -6.8780 C   0  0  0  0  0  0  0  0  0  0  0  0
   11.6970    8.5600   -6.4740 C   0  0  0  0  0  0  0  0  0  0  0  0
   11.9540    9.1570   -5.2520 C   0  0  0  0  0  0  0  0  0  0  0  0
   11.8270    9.2830   -7.8670 C   0  0  0  0  0  0  0  0  0  0  0  0
   11.5180    8.2370   -8.9050 C   0  0  0  0  0  0  0  0  0  0  0  0
   11.1400    7.1750   -8.1850 O   0  0  0  0  0  0  0  0  0  0  0  0
   12.2800    8.0945   -0.9578 H   0  0  0  0  0  0  0  0  0  0  0  0
   11.8509    6.7954   -2.1217 H   0  0  0  0  0  0  0  0  0  0  0  0
   13.5074    7.4901   -2.1217 H   0  0  0  0  0  0  0  0  0  0  0  0
   11.1720   10.1210   -2.1090 H   0  0  0  0  0  0  0  0  0  0  0  0
   11.1675    6.1591   -3.7372 H   0  0  0  0  0  0  0  0  0  0  0  0
   10.8853    5.3597   -6.3196 H   0  0  0  0  0  0  0  0  0  0  0  0
   12.1867   10.2203   -5.0931 H   0  0  0  0  0  0  0  0  0  0  0  0
   11.1092   10.1137   -7.9354 H   0  0  0  0  0  0  0  0  0  0  0  0
   12.8313    9.7087   -8.0090 H   0  0  0  0  0  0  0  0  0  0  0  0
   10.7058    8.5704   -9.5676 H   0  0  0  0  0  0  0  0  0  0  0  0
   12.3744    8.0230   -9.5614 H   0  0  0  0  0  0  0  0  0  0  0  0
  1  2  1  0
  2  3  1  0
  2  4  1  0
  4  5  2  0
  5  6  1  0
  6  7  2  0
  7  8  1  0
  8  9  2  0
  8 10  1  0
 10 11  1  0
 11 12  1  0
  9  4  1  0
 12  7  1  0
  1 13  1  0
  1 14  1  0
  1 15  1  0
  3 16  1  0
  5 17  1  0
  6 18  1  0
  9 19  1  0
 10 20  1  0
 10 21  1  0
 11 22  1  0
 11 23  1  0
M  END

>  <ID>
Pocket2Mol_84_num_sample_100

>  <docking_score>
-6.621

$$$$
Pocket2Mol_85_num_sample_100
     RDKit          3D

 22 23  0  0  0  0  0  0  0  0999 V2000
   12.1080   10.4140   -6.4770 C   0  0  0  0  0  0  0  0  0  0  0  0
   11.6630    9.0780   -6.1570 C   0  0  0  0  0  0  0  0  0  0  0  0
   10.7730    8.3630   -7.0510 N   0  0  0  0  0  0  0  0  0  0  0  0
   10.4260    7.1700   -6.7470 N   0  0  0  0  0  0  0  0  0  0  0  0
   10.7250    6.5650   -5.6340 C   0  0  0  0  0  0  0  0  0  0  0  0
   11.5110    7.1780   -4.7570 C   0  0  0  0  0  0  0  0  0  0  0  0
   11.8750    8.5370   -5.0770 C   0  0  0  0  0  0  0  0  0  0  0  0
   12.7210    9.1240   -4.1090 O   0  0  0  0  0  0  0  0  0  0  0  0
   12.0570    9.4030   -2.8090 C   0  0  0  0  0  0  0  0  0  0  0  0
   12.5200    8.3880   -1.9640 C   0  0  0  0  0  0  0  0  0  0  0  0
   12.6990    7.2470   -2.6380 O   0  0  0  0  0  0  0  0  0  0  0  0
   11.6890    6.5700   -3.2320 C   0  0  0  0  0  0  0  0  0  0  0  0
   12.2936   10.9713   -5.5469 H   0  0  0  0  0  0  0  0  0  0  0  0
   13.0368   10.3604   -7.0639 H   0  0  0  0  0  0  0  0  0  0  0  0
   11.3326   10.9280   -7.0639 H   0  0  0  0  0  0  0  0  0  0  0  0
   10.3318    5.5596   -5.4229 H   0  0  0  0  0  0  0  0  0  0  0  0
   12.3479   10.3925   -2.4265 H   0  0  0  0  0  0  0  0  0  0  0  0
   10.9601    9.4172   -2.8899 H   0  0  0  0  0  0  0  0  0  0  0  0
   13.4779    8.6980   -1.5209 H   0  0  0  0  0  0  0  0  0  0  0  0
   11.7692    8.2166   -1.1785 H   0  0  0  0  0  0  0  0  0  0  0  0
   11.9333    5.4986   -3.2813 H   0  0  0  0  0  0  0  0  0  0  0  0
   10.7571    6.6843   -2.6588 H   0  0  0  0  0  0  0  0  0  0  0  0
  1  2  1  0
  2  3  2  0
  3  4  1  0
  4  5  2  0
  5  6  1  0
  6  7  2  0
  7  8  1  0
  8  9  1  0
  9 10  1  0
 10 11  1  0
 11 12  1  0
  7  2  1  0
 12  6  1  0
  1 13  1  0
  1 14  1  0
  1 15  1  0
  5 16  1  0
  9 17  1  0
  9 18  1  0
 10 19  1  0
 10 20  1  0
 12 21  1  0
 12 22  1  0
M  END

>  <ID>
Pocket2Mol_85_num_sample_100

>  <docking_score>
-6.06

$$$$
Pocket2Mol_86_num_sample_100
     RDKit          3D

 25 26  0  0  0  0  0  0  0  0999 V2000
    9.9930    6.0590   -7.9780 C   0  0  0  0  0  0  0  0  0  0  0  0
   10.6630    7.1390   -7.8630 N   0  0  0  0  0  0  0  0  0  0  0  0
   11.2200    7.8510   -9.0290 C   0  0  0  0  0  0  0  0  0  0  0  0
   11.2020    7.6500   -6.6110 C   0  0  0  0  0  0  0  0  0  0  0  0
   11.6420    8.9390   -6.5130 C   0  0  0  0  0  0  0  0  0  0  0  0
   12.1880    9.4500   -5.2410 C   0  0  0  0  0  0  0  0  0  0  0  0
   12.0190    8.7050   -4.1770 C   0  0  0  0  0  0  0  0  0  0  0  0
   11.6110    7.4060   -4.4200 C   0  0  0  0  0  0  0  0  0  0  0  0
   11.1100    6.7280   -5.5160 C   0  0  0  0  0  0  0  0  0  0  0  0
   11.9090    6.7540   -3.0420 C   0  0  0  0  0  0  0  0  0  0  0  0
   12.4480    7.8470   -2.1500 C   0  0  0  0  0  0  0  0  0  0  0  0
   12.4250    8.9250   -2.9410 O   0  0  0  0  0  0  0  0  0  0  0  0
    9.7512    5.6693   -6.9782 H   0  0  0  0  0  0  0  0  0  0  0  0
    9.0619    6.2619   -8.5275 H   0  0  0  0  0  0  0  0  0  0  0  0
   10.5883    5.3149   -8.5275 H   0  0  0  0  0  0  0  0  0  0  0  0
   11.8634    8.6735   -8.6833 H   0  0  0  0  0  0  0  0  0  0  0  0
   11.8133    7.1518   -9.6365 H   0  0  0  0  0  0  0  0  0  0  0  0
   10.3985    8.2586   -9.6365 H   0  0  0  0  0  0  0  0  0  0  0  0
   11.5890    9.6017   -7.3894 H   0  0  0  0  0  0  0  0  0  0  0  0
   12.7141   10.4146   -5.1886 H   0  0  0  0  0  0  0  0  0  0  0  0
   10.7226    5.6988   -5.5426 H   0  0  0  0  0  0  0  0  0  0  0  0
   10.9863    6.3359   -2.6134 H   0  0  0  0  0  0  0  0  0  0  0  0
   12.6339    5.9327   -3.1422 H   0  0  0  0  0  0  0  0  0  0  0  0
   11.8051    7.9902   -1.2690 H   0  0  0  0  0  0  0  0  0  0  0  0
   13.4491    7.6249   -1.7519 H   0  0  0  0  0  0  0  0  0  0  0  0
  1  2  1  0
  2  3  1  0
  2  4  1  0
  4  5  2  0
  5  6  1  0
  6  7  2  0
  7  8  1  0
  8  9  2  0
  8 10  1  0
 10 11  1  0
 11 12  1  0
  9  4  1  0
 12  7  1  0
  1 13  1  0
  1 14  1  0
  1 15  1  0
  3 16  1  0
  3 17  1  0
  3 18  1  0
  5 19  1  0
  6 20  1  0
  9 21  1  0
 10 22  1  0
 10 23  1  0
 11 24  1  0
 11 25  1  0
M  END

>  <ID>
Pocket2Mol_86_num_sample_100

>  <docking_score>
-6.783

$$$$
Pocket2Mol_87_num_sample_100
     RDKit          3D

 21 22  0  0  0  0  0  0  0  0999 V2000
    8.5030    5.7740   -7.0170 O   0  0  0  0  0  0  0  0  0  0  0  0
    9.4920    6.5080   -7.2240 C   0  0  0  0  0  0  0  0  0  0  0  0
   10.5770    6.7210   -6.4440 O   0  0  0  0  0  0  0  0  0  0  0  0
   10.9510    7.9350   -6.0240 C   0  0  0  0  0  0  0  0  0  0  0  0
   11.3040    8.7530   -7.1030 C   0  0  0  0  0  0  0  0  0  0  0  0
   11.9220    7.8190   -8.0790 O   0  0  0  0  0  0  0  0  0  0  0  0
   11.0880    7.4890   -9.1730 C   0  0  0  0  0  0  0  0  0  0  0  0
   11.4210    7.7270  -10.3280 C   0  0  0  0  0  0  0  0  0  0  0  0
   10.4410    7.1820  -11.3610 C   0  0  0  0  0  0  0  0  0  0  0  0
    9.4180    6.4800  -11.0310 C   0  0  0  0  0  0  0  0  0  0  0  0
    9.1630    6.3000   -9.7250 C   0  0  0  0  0  0  0  0  0  0  0  0
    7.9190    5.5290   -9.3790 O   0  0  0  0  0  0  0  0  0  0  0  0
    9.8390    6.8540   -8.7420 C   0  0  0  0  0  0  0  0  0  0  0  0
   10.1164    8.3997   -5.4785 H   0  0  0  0  0  0  0  0  0  0  0  0
   11.8267    7.8240   -5.3676 H   0  0  0  0  0  0  0  0  0  0  0  0
   10.4147    9.2361   -7.5341 H   0  0  0  0  0  0  0  0  0  0  0  0
   11.9826    9.5679   -6.8106 H   0  0  0  0  0  0  0  0  0  0  0  0
   12.3352    8.2785  -10.5929 H   0  0  0  0  0  0  0  0  0  0  0  0
   10.6164    7.3976  -12.4253 H   0  0  0  0  0  0  0  0  0  0  0  0
    8.7667    6.0371  -11.7989 H   0  0  0  0  0  0  0  0  0  0  0  0
    7.1160    5.5990   -9.9550 H   0  0  0  0  0  0  0  0  0  0  0  0
  1  2  2  0
  2  3  1  0
  3  4  1  0
  4  5  1  0
  5  6  1  0
  6  7  1  0
  7  8  2  0
  8  9  1  0
  9 10  2  0
 10 11  1  0
 11 12  1  0
 11 13  2  0
 13  2  1  0
 13  7  1  0
  4 14  1  0
  4 15  1  0
  5 16  1  0
  5 17  1  0
  8 18  1  0
  9 19  1  0
 10 20  1  0
 12 21  1  0
M  END

>  <ID>
Pocket2Mol_87_num_sample_100

>  <docking_score>
-6.399

$$$$
Pocket2Mol_88_num_sample_100
     RDKit          3D

 13 12  0  0  0  0  0  0  0  0999 V2000
   11.4350    6.6730   -4.3370 C   0  0  0  0  0  0  0  0  0  0  0  0
   11.5290    6.6830   -3.0020 O   0  0  0  0  0  0  0  0  0  0  0  0
   12.4540    7.2350   -2.4800 C   0  0  0  0  0  0  0  0  0  0  0  0
   12.6080    8.5080   -2.8350 C   0  0  0  0  0  0  0  0  0  0  0  0
   12.0230    9.5900   -2.1550 O   0  0  0  0  0  0  0  0  0  0  0  0
   10.3806    6.5608   -4.6295 H   0  0  0  0  0  0  0  0  0  0  0  0
   11.8286    7.6181   -4.7394 H   0  0  0  0  0  0  0  0  0  0  0  0
   12.0186    5.8319   -4.7394 H   0  0  0  0  0  0  0  0  0  0  0  0
   12.3064    7.1975   -1.3906 H   0  0  0  0  0  0  0  0  0  0  0  0
   13.3606    6.7062   -2.8094 H   0  0  0  0  0  0  0  0  0  0  0  0
   13.6920    8.6941   -2.8148 H   0  0  0  0  0  0  0  0  0  0  0  0
   12.0494    8.5299   -3.7824 H   0  0  0  0  0  0  0  0  0  0  0  0
   12.2770    9.5540   -1.1990 H   0  0  0  0  0  0  0  0  0  0  0  0
  1  2  1  0
  2  3  1  0
  3  4  1  0
  4  5  1  0
  1  6  1  0
  1  7  1  0
  1  8  1  0
  3  9  1  0
  3 10  1  0
  4 11  1  0
  4 12  1  0
  5 13  1  0
M  END

>  <ID>
Pocket2Mol_88_num_sample_100

>  <docking_score>
-3.006

$$$$
Pocket2Mol_89_num_sample_100
     RDKit          3D

 23 24  0  0  0  0  0  0  0  0999 V2000
    9.1270    5.4860   -8.2170 C   0  0  0  0  0  0  0  0  0  0  0  0
   10.0690    6.5750   -8.3540 C   0  0  0  0  0  0  0  0  0  0  0  0
   10.5020    7.1310   -9.6630 C   0  0  0  0  0  0  0  0  0  0  0  0
   11.4190    8.0690   -9.8020 C   0  0  0  0  0  0  0  0  0  0  0  0
   11.9430    8.6590   -8.7000 C   0  0  0  0  0  0  0  0  0  0  0  0
   11.5600    8.2510   -7.4890 C   0  0  0  0  0  0  0  0  0  0  0  0
   10.5470    7.1940   -7.4100 C   0  0  0  0  0  0  0  0  0  0  0  0
   10.1470    6.9380   -6.0790 O   0  0  0  0  0  0  0  0  0  0  0  0
   11.2520    6.5130   -5.1820 C   0  0  0  0  0  0  0  0  0  0  0  0
   11.5300    7.6520   -4.4180 C   0  0  0  0  0  0  0  0  0  0  0  0
   11.3530    8.7660   -5.1360 O   0  0  0  0  0  0  0  0  0  0  0  0
   12.0930    9.0690   -6.2270 C   0  0  0  0  0  0  0  0  0  0  0  0
   12.7850   10.0850   -6.4560 O   0  0  0  0  0  0  0  0  0  0  0  0
    8.9525    5.2842   -7.1498 H   0  0  0  0  0  0  0  0  0  0  0  0
    8.1768    5.7604   -8.6985 H   0  0  0  0  0  0  0  0  0  0  0  0
    9.5353    4.5852   -8.6985 H   0  0  0  0  0  0  0  0  0  0  0  0
   10.0277    6.7352  -10.5732 H   0  0  0  0  0  0  0  0  0  0  0  0
   11.7559    8.3701  -10.8049 H   0  0  0  0  0  0  0  0  0  0  0  0
   12.6796    9.4694   -8.8036 H   0  0  0  0  0  0  0  0  0  0  0  0
   10.9337    5.6795   -4.5385 H   0  0  0  0  0  0  0  0  0  0  0  0
   12.1307    6.1525   -5.7369 H   0  0  0  0  0  0  0  0  0  0  0  0
   10.8575    7.6743   -3.5478 H   0  0  0  0  0  0  0  0  0  0  0  0
   12.5799    7.6080   -4.0928 H   0  0  0  0  0  0  0  0  0  0  0  0
  1  2  1  0
  2  3  2  0
  3  4  1  0
  4  5  2  0
  5  6  1  0
  6  7  2  0
  7  8  1  0
  8  9  1  0
  9 10  1  0
 10 11  1  0
 11 12  1  0
 12 13  2  0
  7  2  1  0
 12  6  1  0
  1 14  1  0
  1 15  1  0
  1 16  1  0
  3 17  1  0
  4 18  1  0
  5 19  1  0
  9 20  1  0
  9 21  1  0
 10 22  1  0
 10 23  1  0
M  END

>  <ID>
Pocket2Mol_89_num_sample_100

>  <docking_score>
-6.888

$$$$
Pocket2Mol_8_num_sample_100
     RDKit          3D

 13 13  0  0  0  0  0  0  0  0999 V2000
   11.2020    6.5610   -5.0000 C   0  0  0  0  0  0  0  0  0  0  0  0
   11.8090    7.4070   -3.9680 C   0  0  0  0  0  0  0  0  0  0  0  0
   12.0120    8.6750   -3.7650 C   0  0  0  0  0  0  0  0  0  0  0  0
   12.3850    9.1070   -2.6580 N   0  0  0  0  0  0  0  0  0  0  0  0
   12.4220    8.0660   -1.8070 C   0  0  0  0  0  0  0  0  0  0  0  0
   11.9690    6.7810   -2.4430 C   0  0  0  0  0  0  0  0  0  0  0  0
   10.6246    5.7562   -4.5215 H   0  0  0  0  0  0  0  0  0  0  0  0
   10.5332    7.1696   -5.6264 H   0  0  0  0  0  0  0  0  0  0  0  0
   11.9927    6.1224   -5.6264 H   0  0  0  0  0  0  0  0  0  0  0  0
   11.8504    9.3834   -4.5909 H   0  0  0  0  0  0  0  0  0  0  0  0
   12.7482    8.1460   -0.7595 H   0  0  0  0  0  0  0  0  0  0  0  0
   12.7266    5.9856   -2.3852 H   0  0  0  0  0  0  0  0  0  0  0  0
   11.0921    6.2810   -2.0060 H   0  0  0  0  0  0  0  0  0  0  0  0
  1  2  1  0
  2  3  2  0
  3  4  1  0
  4  5  2  0
  5  6  1  0
  6  2  1  0
  1  7  1  0
  1  8  1  0
  1  9  1  0
  3 10  1  0
  5 11  1  0
  6 12  1  0
  6 13  1  0
M  END

>  <ID>
Pocket2Mol_8_num_sample_100

>  <docking_score>
-4.352

$$$$
Pocket2Mol_90_num_sample_100
     RDKit          3D

 23 24  0  0  0  0  0  0  0  0999 V2000
    9.1040    6.9930   -9.0310 N   0  0  0  0  0  0  0  0  0  0  0  0
    9.4440    7.6080   -7.7490 C   0  0  0  0  0  0  0  0  0  0  0  0
    8.7930    8.5270   -7.2240 O   0  0  0  0  0  0  0  0  0  0  0  0
   10.5350    7.1440   -7.2770 N   0  0  0  0  0  0  0  0  0  0  0  0
   11.1860    7.6260   -6.0670 C   0  0  0  0  0  0  0  0  0  0  0  0
   11.7000    8.8900   -6.0060 C   0  0  0  0  0  0  0  0  0  0  0  0
   12.3590    9.3720   -4.7770 C   0  0  0  0  0  0  0  0  0  0  0  0
   12.2240    8.6390   -3.7010 C   0  0  0  0  0  0  0  0  0  0  0  0
   11.7310    7.3640   -3.9080 C   0  0  0  0  0  0  0  0  0  0  0  0
   11.1200    6.7120   -4.9650 C   0  0  0  0  0  0  0  0  0  0  0  0
   12.0870    6.6980   -2.5510 C   0  0  0  0  0  0  0  0  0  0  0  0
   12.7440    7.7620   -1.7030 C   0  0  0  0  0  0  0  0  0  0  0  0
   12.7250    8.8380   -2.4970 O   0  0  0  0  0  0  0  0  0  0  0  0
    8.2450    7.2750   -9.5270 H   0  0  0  0  0  0  0  0  0  0  0  0
    9.7230    6.2780   -9.4400 H   0  0  0  0  0  0  0  0  0  0  0  0
   10.9880    6.3730   -7.7880 H   0  0  0  0  0  0  0  0  0  0  0  0
   11.6221    9.5537   -6.8798 H   0  0  0  0  0  0  0  0  0  0  0  0
   12.9386   10.3068   -4.7655 H   0  0  0  0  0  0  0  0  0  0  0  0
   10.6773    5.7050   -4.9603 H   0  0  0  0  0  0  0  0  0  0  0  0
   11.1747    6.3306   -2.0583 H   0  0  0  0  0  0  0  0  0  0  0  0
   12.7579    5.8385   -2.6965 H   0  0  0  0  0  0  0  0  0  0  0  0
   12.1713    7.9415   -0.7811 H   0  0  0  0  0  0  0  0  0  0  0  0
   13.7564    7.4869   -1.3722 H   0  0  0  0  0  0  0  0  0  0  0  0
  1  2  1  0
  2  3  2  0
  2  4  1  0
  4  5  1  0
  5  6  2  0
  6  7  1  0
  7  8  2  0
  8  9  1  0
  9 10  2  0
  9 11  1  0
 11 12  1  0
 12 13  1  0
 10  5  1  0
 13  8  1  0
  1 14  1  0
  1 15  1  0
  4 16  1  0
  6 17  1  0
  7 18  1  0
 10 19  1  0
 11 20  1  0
 11 21  1  0
 12 22  1  0
 12 23  1  0
M  END

>  <ID>
Pocket2Mol_90_num_sample_100

>  <docking_score>
-7.395

$$$$
Pocket2Mol_91_num_sample_100
     RDKit          3D

 21 22  0  0  0  0  0  0  0  0999 V2000
   12.9050    8.4540   -1.2270 N   0  0  0  0  0  0  0  0  0  0  0  0
   12.4570    8.1570   -2.5540 C   0  0  0  0  0  0  0  0  0  0  0  0
   12.3790    9.1850   -3.5520 C   0  0  0  0  0  0  0  0  0  0  0  0
   11.9800    8.8910   -4.6730 C   0  0  0  0  0  0  0  0  0  0  0  0
   11.4430    7.5910   -5.0670 C   0  0  0  0  0  0  0  0  0  0  0  0
   11.4070    6.6280   -4.1610 C   0  0  0  0  0  0  0  0  0  0  0  0
   11.8310    6.9740   -2.8220 N   0  0  0  0  0  0  0  0  0  0  0  0
   10.9850    7.2550   -6.5810 C   0  0  0  0  0  0  0  0  0  0  0  0
   10.4600    6.1360   -6.7650 O   0  0  0  0  0  0  0  0  0  0  0  0
   10.7820    8.4140   -7.2480 O   0  0  0  0  0  0  0  0  0  0  0  0
   11.7650    9.1000   -7.8420 C   0  0  0  0  0  0  0  0  0  0  0  0
   12.6950    9.5590   -6.9030 C   0  0  0  0  0  0  0  0  0  0  0  0
   11.8770    9.8590   -5.6990 O   0  0  0  0  0  0  0  0  0  0  0  0
   13.7860    8.9680   -1.0840 H   0  0  0  0  0  0  0  0  0  0  0  0
   12.3450    8.1560   -0.4160 H   0  0  0  0  0  0  0  0  0  0  0  0
   12.6721   10.2185   -3.3153 H   0  0  0  0  0  0  0  0  0  0  0  0
   11.0704    5.6117   -4.4139 H   0  0  0  0  0  0  0  0  0  0  0  0
   12.2756    8.4451   -8.5634 H   0  0  0  0  0  0  0  0  0  0  0  0
   11.3259    9.9691   -8.3538 H   0  0  0  0  0  0  0  0  0  0  0  0
   13.4433    8.7833   -6.6833 H   0  0  0  0  0  0  0  0  0  0  0  0
   13.2580   10.4342   -7.2595 H   0  0  0  0  0  0  0  0  0  0  0  0
  1  2  1  0
  2  3  2  0
  3  4  1  0
  4  5  2  0
  5  6  1  0
  6  7  2  0
  5  8  1  0
  8  9  2  0
  8 10  1  0
 10 11  1  0
 11 12  1  0
 12 13  1  0
  7  2  1  0
 13  4  1  0
  1 14  1  0
  1 15  1  0
  3 16  1  0
  6 17  1  0
 11 18  1  0
 11 19  1  0
 12 20  1  0
 12 21  1  0
M  END

>  <ID>
Pocket2Mol_91_num_sample_100

>  <docking_score>
-6.716

$$$$
Pocket2Mol_92_num_sample_100
     RDKit          3D

 26 27  0  0  0  0  0  0  0  0999 V2000
   12.5550    7.9110   -2.1440 C   0  0  0  0  0  0  0  0  0  0  0  0
   11.9520    6.7140   -2.6240 C   0  0  0  0  0  0  0  0  0  0  0  0
   11.4870    6.6570   -4.0180 N   0  0  0  0  0  0  0  0  0  0  0  0
   11.5670    7.8670   -4.8130 C   0  0  0  0  0  0  0  0  0  0  0  0
   11.2010    7.7580   -5.9780 C   0  0  0  0  0  0  0  0  0  0  0  0
   10.4940    6.6200   -6.5120 C   0  0  0  0  0  0  0  0  0  0  0  0
   10.1730    6.4790   -8.1260 C   0  0  0  0  0  0  0  0  0  0  0  0
   10.0970    7.7280   -8.6380 O   0  0  0  0  0  0  0  0  0  0  0  0
   11.1610    8.3980   -9.0960 C   0  0  0  0  0  0  0  0  0  0  0  0
   12.0770    8.6480   -8.0690 C   0  0  0  0  0  0  0  0  0  0  0  0
   11.2280    8.8570   -6.8680 O   0  0  0  0  0  0  0  0  0  0  0  0
   12.2040    9.0510   -4.2870 C   0  0  0  0  0  0  0  0  0  0  0  0
   12.6740    9.0170   -3.0910 C   0  0  0  0  0  0  0  0  0  0  0  0
   12.9146    7.9990   -1.1082 H   0  0  0  0  0  0  0  0  0  0  0  0
   11.8355    5.8438   -1.9613 H   0  0  0  0  0  0  0  0  0  0  0  0
   11.1150    5.7840   -4.4180 H   0  0  0  0  0  0  0  0  0  0  0  0
   11.0814    5.7323   -6.2344 H   0  0  0  0  0  0  0  0  0  0  0  0
    9.4890    6.7451   -6.0826 H   0  0  0  0  0  0  0  0  0  0  0  0
   10.9798    5.9189   -8.6214 H   0  0  0  0  0  0  0  0  0  0  0  0
    9.2291    5.9375   -8.2864 H   0  0  0  0  0  0  0  0  0  0  0  0
   11.6522    7.8011   -9.8785 H   0  0  0  0  0  0  0  0  0  0  0  0
   10.8196    9.3613   -9.5028 H   0  0  0  0  0  0  0  0  0  0  0  0
   12.7488    7.7886   -7.9274 H   0  0  0  0  0  0  0  0  0  0  0  0
   12.7252    9.5106   -8.2827 H   0  0  0  0  0  0  0  0  0  0  0  0
   12.2854    9.9629   -4.8967 H   0  0  0  0  0  0  0  0  0  0  0  0
   13.2193    9.9082   -2.7468 H   0  0  0  0  0  0  0  0  0  0  0  0
  1  2  2  0
  2  3  1  0
  3  4  1  0
  4  5  2  3
  5  6  1  0
  6  7  1  0
  7  8  1  0
  8  9  1  0
  9 10  1  0
 10 11  1  0
  4 12  1  0
 12 13  2  0
 13  1  1  0
 11  5  1  0
  1 14  1  0
  2 15  1  0
  3 16  1  0
  6 17  1  0
  6 18  1  0
  7 19  1  0
  7 20  1  0
  9 21  1  0
  9 22  1  0
 10 23  1  0
 10 24  1  0
 12 25  1  0
 13 26  1  0
M  END

>  <ID>
Pocket2Mol_92_num_sample_100

>  <docking_score>
-7.439

$$$$
Pocket2Mol_93_num_sample_100
     RDKit          3D

 23 25  0  0  0  0  0  0  0  0999 V2000
   11.1780    6.5580   -4.9690 C   0  0  0  0  0  0  0  0  0  0  0  0
   11.6690    7.3750   -3.9660 C   0  0  0  0  0  0  0  0  0  0  0  0
   12.0590    8.6990   -3.8890 C   0  0  0  0  0  0  0  0  0  0  0  0
   11.9380    9.3020   -5.1420 C   0  0  0  0  0  0  0  0  0  0  0  0
   11.4710    8.5700   -6.2260 C   0  0  0  0  0  0  0  0  0  0  0  0
   11.3260    7.1840   -6.2430 C   0  0  0  0  0  0  0  0  0  0  0  0
   10.9190    6.4860   -7.3850 O   0  0  0  0  0  0  0  0  0  0  0  0
   10.0430    7.1760   -8.1190 C   0  0  0  0  0  0  0  0  0  0  0  0
   11.0090    8.1810   -8.6020 C   0  0  0  0  0  0  0  0  0  0  0  0
   11.3880    9.1480   -7.5250 O   0  0  0  0  0  0  0  0  0  0  0  0
   12.4610    9.0780   -2.6910 O   0  0  0  0  0  0  0  0  0  0  0  0
   12.4990    8.1070   -1.7710 C   0  0  0  0  0  0  0  0  0  0  0  0
   12.3240    6.9380   -2.4680 C   0  0  0  0  0  0  0  0  0  0  0  0
   10.7352    5.5642   -4.8070 H   0  0  0  0  0  0  0  0  0  0  0  0
   12.2131   10.3592   -5.2712 H   0  0  0  0  0  0  0  0  0  0  0  0
    9.6070    6.5791   -8.9336 H   0  0  0  0  0  0  0  0  0  0  0  0
    9.1425    7.5485   -7.6088 H   0  0  0  0  0  0  0  0  0  0  0  0
   11.9150    7.6648   -8.9524 H   0  0  0  0  0  0  0  0  0  0  0  0
   10.5359    8.7460   -9.4187 H   0  0  0  0  0  0  0  0  0  0  0  0
   13.4696    8.1049   -1.2534 H   0  0  0  0  0  0  0  0  0  0  0  0
   11.7264    8.2433   -1.0000 H   0  0  0  0  0  0  0  0  0  0  0  0
   13.2892    6.4292   -2.6077 H   0  0  0  0  0  0  0  0  0  0  0  0
   11.6624    6.2446   -1.9281 H   0  0  0  0  0  0  0  0  0  0  0  0
  1  2  2  0
  2  3  1  0
  3  4  2  0
  4  5  1  0
  5  6  2  0
  6  7  1  0
  7  8  1  0
  8  9  1  0
  9 10  1  0
  3 11  1  0
 11 12  1  0
 12 13  1  0
  6  1  1  0
 13  2  1  0
 10  5  1  0
  1 14  1  0
  4 15  1  0
  8 16  1  0
  8 17  1  0
  9 18  1  0
  9 19  1  0
 12 20  1  0
 12 21  1  0
 13 22  1  0
 13 23  1  0
M  END

>  <ID>
Pocket2Mol_93_num_sample_100

>  <docking_score>
-7.526

$$$$
Pocket2Mol_94_num_sample_100
     RDKit          3D

 24 25  0  0  0  0  0  0  0  0999 V2000
    9.4490    6.3660   -9.0330 C   0  0  0  0  0  0  0  0  0  0  0  0
    9.7850    7.0520   -7.7900 C   0  0  0  0  0  0  0  0  0  0  0  0
    9.0410    8.0030   -7.3940 O   0  0  0  0  0  0  0  0  0  0  0  0
   10.8200    6.7410   -7.2270 N   0  0  0  0  0  0  0  0  0  0  0  0
   11.3190    7.3890   -6.0230 C   0  0  0  0  0  0  0  0  0  0  0  0
   11.6740    8.7070   -6.0340 C   0  0  0  0  0  0  0  0  0  0  0  0
   12.1800    9.3570   -4.8100 C   0  0  0  0  0  0  0  0  0  0  0  0
   12.0540    8.6950   -3.6870 C   0  0  0  0  0  0  0  0  0  0  0  0
   11.7320    7.3570   -3.8190 C   0  0  0  0  0  0  0  0  0  0  0  0
   11.2810    6.5580   -4.8540 C   0  0  0  0  0  0  0  0  0  0  0  0
   12.0640    6.8440   -2.3910 C   0  0  0  0  0  0  0  0  0  0  0  0
   12.5270    8.0400   -1.5950 C   0  0  0  0  0  0  0  0  0  0  0  0
   12.4390    9.0440   -2.4740 O   0  0  0  0  0  0  0  0  0  0  0  0
    8.9759    5.4001   -8.8024 H   0  0  0  0  0  0  0  0  0  0  0  0
    8.7523    6.9854   -9.6169 H   0  0  0  0  0  0  0  0  0  0  0  0
   10.3655    6.1953   -9.6169 H   0  0  0  0  0  0  0  0  0  0  0  0
   11.3760    5.9730   -7.6280 H   0  0  0  0  0  0  0  0  0  0  0  0
   11.5821    9.2891   -6.9628 H   0  0  0  0  0  0  0  0  0  0  0  0
   12.6430   10.3544   -4.8394 H   0  0  0  0  0  0  0  0  0  0  0  0
   10.9608    5.5074   -4.7936 H   0  0  0  0  0  0  0  0  0  0  0  0
   11.1677    6.4050   -1.9284 H   0  0  0  0  0  0  0  0  0  0  0  0
   12.8406    6.0655   -2.4217 H   0  0  0  0  0  0  0  0  0  0  0  0
   11.8718    8.2152   -0.7290 H   0  0  0  0  0  0  0  0  0  0  0  0
   13.5383    7.9171   -1.1800 H   0  0  0  0  0  0  0  0  0  0  0  0
  1  2  1  0
  2  3  2  0
  2  4  1  0
  4  5  1  0
  5  6  2  0
  6  7  1  0
  7  8  2  0
  8  9  1  0
  9 10  2  0
  9 11  1  0
 11 12  1  0
 12 13  1  0
 10  5  1  0
 13  8  1  0
  1 14  1  0
  1 15  1  0
  1 16  1  0
  4 17  1  0
  6 18  1  0
  7 19  1  0
 10 20  1  0
 11 21  1  0
 11 22  1  0
 12 23  1  0
 12 24  1  0
M  END

>  <ID>
Pocket2Mol_94_num_sample_100

>  <docking_score>
-7.355

$$$$
Pocket2Mol_95_num_sample_100
     RDKit          3D

 23 24  0  0  0  0  0  0  0  0999 V2000
    9.3330    6.2560   -7.2950 C   0  0  0  0  0  0  0  0  0  0  0  0
   10.7020    6.2250   -7.0950 O   0  0  0  0  0  0  0  0  0  0  0  0
   11.2380    7.4300   -6.6760 C   0  0  0  0  0  0  0  0  0  0  0  0
   11.5200    8.3840   -7.5780 C   0  0  0  0  0  0  0  0  0  0  0  0
   11.1940    8.2080   -8.8630 O   0  0  0  0  0  0  0  0  0  0  0  0
   12.0290    9.6610   -7.1320 C   0  0  0  0  0  0  0  0  0  0  0  0
   12.2550    9.8910   -5.7570 C   0  0  0  0  0  0  0  0  0  0  0  0
   12.0410    8.8790   -4.8410 C   0  0  0  0  0  0  0  0  0  0  0  0
   11.5790    7.5900   -5.3020 C   0  0  0  0  0  0  0  0  0  0  0  0
   11.0870    6.8680   -4.3940 O   0  0  0  0  0  0  0  0  0  0  0  0
   11.8650    6.7440   -3.1420 C   0  0  0  0  0  0  0  0  0  0  0  0
   12.3840    8.0420   -2.8450 C   0  0  0  0  0  0  0  0  0  0  0  0
   11.8840    8.9800   -3.6580 O   0  0  0  0  0  0  0  0  0  0  0  0
    8.8204    6.2676   -6.3218 H   0  0  0  0  0  0  0  0  0  0  0  0
    9.0655    7.1604   -7.8611 H   0  0  0  0  0  0  0  0  0  0  0  0
    9.0249    5.3646   -7.8611 H   0  0  0  0  0  0  0  0  0  0  0  0
   10.8570    8.9700   -9.3970 H   0  0  0  0  0  0  0  0  0  0  0  0
   12.2405   10.4544   -7.8640 H   0  0  0  0  0  0  0  0  0  0  0  0
   12.6019   10.8772   -5.4148 H   0  0  0  0  0  0  0  0  0  0  0  0
   11.2138    6.4009   -2.3245 H   0  0  0  0  0  0  0  0  0  0  0  0
   12.6778    6.0115   -3.2547 H   0  0  0  0  0  0  0  0  0  0  0  0
   12.1268    8.2982   -1.8066 H   0  0  0  0  0  0  0  0  0  0  0  0
   13.4741    8.0132   -2.9894 H   0  0  0  0  0  0  0  0  0  0  0  0
  1  2  1  0
  2  3  1  0
  3  4  2  0
  4  5  1  0
  4  6  1  0
  6  7  2  0
  7  8  1  0
  8  9  2  0
  9 10  1  0
 10 11  1  0
 11 12  1  0
 12 13  1  0
  9  3  1  0
 13  8  1  0
  1 14  1  0
  1 15  1  0
  1 16  1  0
  5 17  1  0
  6 18  1  0
  7 19  1  0
 11 20  1  0
 11 21  1  0
 12 22  1  0
 12 23  1  0
M  END

>  <ID>
Pocket2Mol_95_num_sample_100

>  <docking_score>
-5.832

$$$$
Pocket2Mol_96_num_sample_100
     RDKit          3D

 20 21  0  0  0  0  0  0  0  0999 V2000
   12.0930   10.6570   -6.1210 O   0  0  0  0  0  0  0  0  0  0  0  0
   11.6520    9.4890   -6.1860 C   0  0  0  0  0  0  0  0  0  0  0  0
   11.5180    8.6840   -7.2650 O   0  0  0  0  0  0  0  0  0  0  0  0
   10.3530    8.1390   -7.6320 C   0  0  0  0  0  0  0  0  0  0  0  0
    9.8800    7.2580   -6.6540 C   0  0  0  0  0  0  0  0  0  0  0  0
   11.1120    6.6520   -6.0860 O   0  0  0  0  0  0  0  0  0  0  0  0
   11.4790    7.1630   -4.8200 C   0  0  0  0  0  0  0  0  0  0  0  0
   11.5710    6.4370   -3.8370 C   0  0  0  0  0  0  0  0  0  0  0  0
   11.9510    7.0170   -2.5810 C   0  0  0  0  0  0  0  0  0  0  0  0
   12.3800    8.3320   -2.5870 C   0  0  0  0  0  0  0  0  0  0  0  0
   12.9350    8.8130   -1.3530 F   0  0  0  0  0  0  0  0  0  0  0  0
   12.3490    9.0980   -3.7030 C   0  0  0  0  0  0  0  0  0  0  0  0
   11.8510    8.5750   -4.8660 C   0  0  0  0  0  0  0  0  0  0  0  0
    9.6135    8.9392   -7.7829 H   0  0  0  0  0  0  0  0  0  0  0  0
   10.5084    7.5761   -8.5642 H   0  0  0  0  0  0  0  0  0  0  0  0
    9.3183    7.8000   -5.8789 H   0  0  0  0  0  0  0  0  0  0  0  0
    9.1889    6.5058   -7.0620 H   0  0  0  0  0  0  0  0  0  0  0  0
   11.3658    5.3592   -3.9163 H   0  0  0  0  0  0  0  0  0  0  0  0
   11.9030    6.4372   -1.6474 H   0  0  0  0  0  0  0  0  0  0  0  0
   12.7212   10.1328   -3.6754 H   0  0  0  0  0  0  0  0  0  0  0  0
  1  2  2  0
  2  3  1  0
  3  4  1  0
  4  5  1  0
  5  6  1  0
  6  7  1  0
  7  8  2  0
  8  9  1  0
  9 10  2  0
 10 11  1  0
 10 12  1  0
 12 13  2  0
 13  2  1  0
 13  7  1  0
  4 14  1  0
  4 15  1  0
  5 16  1  0
  5 17  1  0
  8 18  1  0
  9 19  1  0
 12 20  1  0
M  END

>  <ID>
Pocket2Mol_96_num_sample_100

>  <docking_score>
-7.434

$$$$
Pocket2Mol_97_num_sample_100
     RDKit          3D

 24 25  0  0  0  0  0  0  0  0999 V2000
   12.1010   10.4450   -6.4810 C   0  0  0  0  0  0  0  0  0  0  0  0
   11.6700    9.1020   -6.1700 C   0  0  0  0  0  0  0  0  0  0  0  0
   10.7520    8.4340   -7.1050 C   0  0  0  0  0  0  0  0  0  0  0  0
   10.4190    7.1790   -6.8430 C   0  0  0  0  0  0  0  0  0  0  0  0
    9.6350    6.5270   -7.8670 F   0  0  0  0  0  0  0  0  0  0  0  0
   10.7370    6.5670   -5.6740 C   0  0  0  0  0  0  0  0  0  0  0  0
   11.5360    7.1930   -4.7820 C   0  0  0  0  0  0  0  0  0  0  0  0
   11.8860    8.5570   -5.0930 C   0  0  0  0  0  0  0  0  0  0  0  0
   12.7250    9.1470   -4.1200 O   0  0  0  0  0  0  0  0  0  0  0  0
   12.0560    9.4110   -2.8190 C   0  0  0  0  0  0  0  0  0  0  0  0
   12.5290    8.3960   -1.9800 C   0  0  0  0  0  0  0  0  0  0  0  0
   12.7210    7.2610   -2.6610 O   0  0  0  0  0  0  0  0  0  0  0  0
   11.7190    6.5770   -3.2600 C   0  0  0  0  0  0  0  0  0  0  0  0
   12.2787   10.9986   -5.5472 H   0  0  0  0  0  0  0  0  0  0  0  0
   13.0315   10.4052   -7.0663 H   0  0  0  0  0  0  0  0  0  0  0  0
   11.3211   10.9541   -7.0663 H   0  0  0  0  0  0  0  0  0  0  0  0
   10.3569    8.9568   -7.9885 H   0  0  0  0  0  0  0  0  0  0  0  0
   10.3450    5.5632   -5.4531 H   0  0  0  0  0  0  0  0  0  0  0  0
   12.3356   10.4012   -2.4300 H   0  0  0  0  0  0  0  0  0  0  0  0
   10.9591    9.4140   -2.9012 H   0  0  0  0  0  0  0  0  0  0  0  0
   13.4831    8.7135   -1.5340 H   0  0  0  0  0  0  0  0  0  0  0  0
   11.7793    8.2117   -1.1964 H   0  0  0  0  0  0  0  0  0  0  0  0
   11.9748    5.5086   -3.3157 H   0  0  0  0  0  0  0  0  0  0  0  0
   10.7854    6.6775   -2.6871 H   0  0  0  0  0  0  0  0  0  0  0  0
  1  2  1  0
  2  3  2  0
  3  4  1  0
  4  5  1  0
  4  6  2  0
  6  7  1  0
  7  8  2  0
  8  9  1  0
  9 10  1  0
 10 11  1  0
 11 12  1  0
 12 13  1  0
  8  2  1  0
 13  7  1  0
  1 14  1  0
  1 15  1  0
  1 16  1  0
  3 17  1  0
  6 18  1  0
 10 19  1  0
 10 20  1  0
 11 21  1  0
 11 22  1  0
 13 23  1  0
 13 24  1  0
M  END

>  <ID>
Pocket2Mol_97_num_sample_100

>  <docking_score>
-7.052

$$$$
Pocket2Mol_98_num_sample_100
     RDKit          3D

 23 24  0  0  0  0  0  0  0  0999 V2000
    9.4370    6.4000   -9.0710 C   0  0  0  0  0  0  0  0  0  0  0  0
    9.7210    7.0440   -7.7830 C   0  0  0  0  0  0  0  0  0  0  0  0
    9.0100    8.2070   -7.4170 O   0  0  0  0  0  0  0  0  0  0  0  0
   10.7120    6.6690   -7.2450 N   0  0  0  0  0  0  0  0  0  0  0  0
   11.2640    7.3230   -6.0600 C   0  0  0  0  0  0  0  0  0  0  0  0
   11.7050    8.6890   -5.9900 C   0  0  0  0  0  0  0  0  0  0  0  0
   12.1000    9.4270   -4.7130 C   0  0  0  0  0  0  0  0  0  0  0  0
   12.0960    8.6810   -3.7170 C   0  0  0  0  0  0  0  0  0  0  0  0
   11.7500    7.3490   -3.8510 C   0  0  0  0  0  0  0  0  0  0  0  0
   11.2600    6.5660   -4.8800 C   0  0  0  0  0  0  0  0  0  0  0  0
   12.0350    6.8310   -2.3900 C   0  0  0  0  0  0  0  0  0  0  0  0
   12.6160    8.0020   -1.6440 C   0  0  0  0  0  0  0  0  0  0  0  0
   12.5190    9.0140   -2.5130 O   0  0  0  0  0  0  0  0  0  0  0  0
    8.9988    5.4064   -8.8954 H   0  0  0  0  0  0  0  0  0  0  0  0
    8.7279    7.0179   -9.6414 H   0  0  0  0  0  0  0  0  0  0  0  0
   10.3714    6.2931   -9.6414 H   0  0  0  0  0  0  0  0  0  0  0  0
   11.7628    9.2494   -6.9348 H   0  0  0  0  0  0  0  0  0  0  0  0
   12.3585   10.4956   -4.6775 H   0  0  0  0  0  0  0  0  0  0  0  0
   10.9232    5.5229   -4.7880 H   0  0  0  0  0  0  0  0  0  0  0  0
   11.1013    6.4983   -1.9129 H   0  0  0  0  0  0  0  0  0  0  0  0
   12.7223    5.9721   -2.3926 H   0  0  0  0  0  0  0  0  0  0  0  0
   12.0376    8.2117   -0.7322 H   0  0  0  0  0  0  0  0  0  0  0  0
   13.6495    7.8243   -1.3118 H   0  0  0  0  0  0  0  0  0  0  0  0
  1  2  1  0
  2  3  1  0
  2  4  2  3
  4  5  1  0
  5  6  2  0
  6  7  1  0
  7  8  2  0
  8  9  1  0
  9 10  2  0
  9 11  1  0
 11 12  1  0
 12 13  1  0
 10  5  1  0
 13  8  1  0
  1 14  1  0
  1 15  1  0
  1 16  1  0
  6 17  1  0
  7 18  1  0
 10 19  1  0
 11 20  1  0
 11 21  1  0
 12 22  1  0
 12 23  1  0
M  CHG  1   3  -1
M  END

>  <ID>
Pocket2Mol_98_num_sample_100

>  <docking_score>
-7.385

$$$$
Pocket2Mol_99_num_sample_100
     RDKit          3D

 11 11  0  0  0  0  0  0  0  0999 V2000
    6.7410    5.3690   -0.7660 C   0  0  0  0  0  0  0  0  0  0  0  0
    6.2310    4.3950   -1.5800 C   0  0  0  0  0  0  0  0  0  0  0  0
    6.7230    3.2590   -0.8400 O   0  0  0  0  0  0  0  0  0  0  0  0
    7.2860    3.7280    0.5040 C   0  0  0  0  0  0  0  0  0  0  0  0
    7.1640    5.0460    0.3090 O   0  0  0  0  0  0  0  0  0  0  0  0
    7.5673    5.8493   -1.3106 H   0  0  0  0  0  0  0  0  0  0  0  0
    5.8782    6.0118   -0.5371 H   0  0  0  0  0  0  0  0  0  0  0  0
    5.1323    4.4208   -1.6271 H   0  0  0  0  0  0  0  0  0  0  0  0
    6.5148    4.4470   -2.6415 H   0  0  0  0  0  0  0  0  0  0  0  0
    6.6832    3.3753    1.3538 H   0  0  0  0  0  0  0  0  0  0  0  0
    8.2949    3.3692    0.7556 H   0  0  0  0  0  0  0  0  0  0  0  0
  1  2  1  0
  2  3  1  0
  3  4  1  0
  4  5  1  0
  5  1  1  0
  1  6  1  0
  1  7  1  0
  2  8  1  0
  2  9  1  0
  4 10  1  0
  4 11  1  0
M  END

>  <ID>
Pocket2Mol_99_num_sample_100

>  <docking_score>
-3.419

$$$$
Pocket2Mol_9_num_sample_100
     RDKit          3D

 12 12  0  0  0  0  0  0  0  0999 V2000
   11.1680    6.5940   -5.2580 C   0  0  0  0  0  0  0  0  0  0  0  0
   11.5970    7.1500   -3.9710 C   0  0  0  0  0  0  0  0  0  0  0  0
   11.9570    6.7020   -2.8060 C   0  0  0  0  0  0  0  0  0  0  0  0
   12.4770    7.4450   -1.9520 N   0  0  0  0  0  0  0  0  0  0  0  0
   12.6380    8.6570   -2.5140 C   0  0  0  0  0  0  0  0  0  0  0  0
   12.1210    8.5030   -3.8690 N   0  0  0  0  0  0  0  0  0  0  0  0
   10.5046    5.7342   -5.0831 H   0  0  0  0  0  0  0  0  0  0  0  0
   10.6277    7.3640   -5.8282 H   0  0  0  0  0  0  0  0  0  0  0  0
   12.0499    6.2667   -5.8282 H   0  0  0  0  0  0  0  0  0  0  0  0
   11.7987    5.6399   -2.5676 H   0  0  0  0  0  0  0  0  0  0  0  0
   13.0640    9.5611   -2.0545 H   0  0  0  0  0  0  0  0  0  0  0  0
   12.1250    9.2170   -4.6110 H   0  0  0  0  0  0  0  0  0  0  0  0
  1  2  1  0
  2  3  2  0
  3  4  1  0
  4  5  2  0
  5  6  1  0
  6  2  1  0
  1  7  1  0
  1  8  1  0
  1  9  1  0
  3 10  1  0
  5 11  1  0
  6 12  1  0
M  END

>  <ID>
Pocket2Mol_9_num_sample_100

>  <docking_score>
-3.719

$$$$
