Pocket2Mol_0
     RDKit          3D

 21 23  0  0  0  0  0  0  0  0999 V2000
    9.9660    6.8120   -7.8840 C   0  0  0  0  0  0  0  0  0  0  0  0
    9.6870    8.1270   -7.9990 C   0  0  0  0  0  0  0  0  0  0  0  0
   10.5620    8.9190   -7.1560 N   0  0  0  0  0  0  0  0  0  0  0  0
   11.3180    8.4760   -6.1250 C   0  0  0  0  0  0  0  0  0  0  0  0
   11.9540    9.2610   -5.0160 C   0  0  0  0  0  0  0  0  0  0  0  0
   11.9870    8.7140   -3.8260 C   0  0  0  0  0  0  0  0  0  0  0  0
   11.7780    7.3470   -3.7940 C   0  0  0  0  0  0  0  0  0  0  0  0
   11.3140    6.4090   -4.6980 C   0  0  0  0  0  0  0  0  0  0  0  0
   11.1750    7.1110   -5.9410 C   0  0  0  0  0  0  0  0  0  0  0  0
   10.6340    6.3000   -7.0230 N   0  0  0  0  0  0  0  0  0  0  0  0
   12.2780    7.0180   -2.3610 C   0  0  0  0  0  0  0  0  0  0  0  0
   12.6980    8.3260   -1.7340 C   0  0  0  0  0  0  0  0  0  0  0  0
   12.4430    9.2200   -2.6960 O   0  0  0  0  0  0  0  0  0  0  0  0
    9.5432    6.1445   -8.6493 H   0  0  0  0  0  0  0  0  0  0  0  0
    8.9006    8.5430   -8.6460 H   0  0  0  0  0  0  0  0  0  0  0  0
   12.3775   10.2602   -5.1956 H   0  0  0  0  0  0  0  0  0  0  0  0
   11.0972    5.3481   -4.5045 H   0  0  0  0  0  0  0  0  0  0  0  0
   11.4689    6.5592   -1.7737 H   0  0  0  0  0  0  0  0  0  0  0  0
   13.1167    6.3068   -2.3893 H   0  0  0  0  0  0  0  0  0  0  0  0
   12.1071    8.5386   -0.8309 H   0  0  0  0  0  0  0  0  0  0  0  0
   13.7482    8.3309   -1.4069 H   0  0  0  0  0  0  0  0  0  0  0  0
  1  2  1  0
  2  3  2  0
  3  4  1  0
  4  5  2  0
  5  6  1  0
  6  7  2  0
  7  8  1  0
  8  9  2  0
  9 10  1  0
  7 11  1  0
 11 12  1  0
 12 13  1  0
 10  1  2  0
  9  4  1  0
 13  6  1  0
  1 14  1  0
  2 15  1  0
  5 16  1  0
  8 17  1  0
 11 18  1  0
 11 19  1  0
 12 20  1  0
 12 21  1  0
M  END
>  <docking_score>  (1) 
-7.407

>  <plif_similarity>  (1) 
0.286

$$$$
Pocket2Mol_10
     RDKit          3D

 12 12  0  0  0  0  0  0  0  0999 V2000
   11.2690    6.5370   -4.8560 C   0  0  0  0  0  0  0  0  0  0  0  0
   11.7660    7.3550   -3.8410 C   0  0  0  0  0  0  0  0  0  0  0  0
   12.0230    6.9400   -2.5240 C   0  0  0  0  0  0  0  0  0  0  0  0
   12.5610    8.0870   -1.7740 C   0  0  0  0  0  0  0  0  0  0  0  0
   12.4160    9.1070   -2.6560 O   0  0  0  0  0  0  0  0  0  0  0  0
   12.0290    8.7840   -3.7440 C   0  0  0  0  0  0  0  0  0  0  0  0
   10.7466    5.6772   -4.4112 H   0  0  0  0  0  0  0  0  0  0  0  0
   10.5667    7.1108   -5.4785 H   0  0  0  0  0  0  0  0  0  0  0  0
   12.1018    6.1781   -5.4785 H   0  0  0  0  0  0  0  0  0  0  0  0
   11.8516    5.9306   -2.1217 H   0  0  0  0  0  0  0  0  0  0  0  0
   12.9758    8.1107   -0.7555 H   0  0  0  0  0  0  0  0  0  0  0  0
   11.8882    9.4890   -4.5766 H   0  0  0  0  0  0  0  0  0  0  0  0
  1  2  1  0
  2  3  1  0
  3  4  2  0
  4  5  1  0
  5  6  1  0
  6  2  2  0
  1  7  1  0
  1  8  1  0
  1  9  1  0
  3 10  1  0
  4 11  1  0
  6 12  1  0
M  END
>  <docking_score>  (2) 
-4.363

>  <plif_similarity>  (2) 
0.286

$$$$
Pocket2Mol_12
     RDKit          3D

 14 14  0  0  0  0  0  0  0  0999 V2000
   11.3070    6.5460   -4.8370 C   0  0  0  0  0  0  0  0  0  0  0  0
   11.7960    7.3550   -3.8110 C   0  0  0  0  0  0  0  0  0  0  0  0
   12.0570    8.7840   -3.6990 C   0  0  0  0  0  0  0  0  0  0  0  0
   12.4370    9.0970   -2.6060 O   0  0  0  0  0  0  0  0  0  0  0  0
   12.5770    8.0690   -1.7320 C   0  0  0  0  0  0  0  0  0  0  0  0
   11.9920    6.7550   -2.4570 C   0  0  0  0  0  0  0  0  0  0  0  0
   10.7839    5.6806   -4.4039 H   0  0  0  0  0  0  0  0  0  0  0  0
   10.6071    7.1243   -5.4580 H   0  0  0  0  0  0  0  0  0  0  0  0
   12.1444    6.1951   -5.4580 H   0  0  0  0  0  0  0  0  0  0  0  0
   11.9205    9.4967   -4.5257 H   0  0  0  0  0  0  0  0  0  0  0  0
   13.6392    7.9239   -1.4858 H   0  0  0  0  0  0  0  0  0  0  0  0
   12.0393    8.2735   -0.7944 H   0  0  0  0  0  0  0  0  0  0  0  0
   12.7137    5.9249   -2.4666 H   0  0  0  0  0  0  0  0  0  0  0  0
   11.1072    6.2939   -1.9938 H   0  0  0  0  0  0  0  0  0  0  0  0
  1  2  1  0
  2  3  2  0
  3  4  1  0
  4  5  1  0
  5  6  1  0
  6  2  1  0
  1  7  1  0
  1  8  1  0
  1  9  1  0
  3 10  1  0
  5 11  1  0
  5 12  1  0
  6 13  1  0
  6 14  1  0
M  END
>  <docking_score>  (3) 
-4.419

>  <plif_similarity>  (3) 
0.286

$$$$
Pocket2Mol_17
     RDKit          3D

 12 12  0  0  0  0  0  0  0  0999 V2000
   12.6560    8.8130   -1.1170 O   0  0  0  0  0  0  0  0  0  0  0  0
   12.3400    8.3160   -2.4440 C   0  0  0  0  0  0  0  0  0  0  0  0
   12.0100    7.0280   -2.6600 C   0  0  0  0  0  0  0  0  0  0  0  0
   11.5490    6.7310   -3.8390 C   0  0  0  0  0  0  0  0  0  0  0  0
   11.5430    7.5630   -4.7660 N   0  0  0  0  0  0  0  0  0  0  0  0
   11.9280    8.8310   -4.6010 C   0  0  0  0  0  0  0  0  0  0  0  0
   12.2960    9.2080   -3.3890 C   0  0  0  0  0  0  0  0  0  0  0  0
   12.5360    8.2270   -0.3280 H   0  0  0  0  0  0  0  0  0  0  0  0
   12.1250    6.2643   -1.8767 H   0  0  0  0  0  0  0  0  0  0  0  0
   11.1548    5.7205   -4.0222 H   0  0  0  0  0  0  0  0  0  0  0  0
   11.9385    9.5370   -5.4444 H   0  0  0  0  0  0  0  0  0  0  0  0
   12.5599   10.2559   -3.1837 H   0  0  0  0  0  0  0  0  0  0  0  0
  1  2  1  0
  2  3  2  0
  3  4  1  0
  4  5  2  0
  5  6  1  0
  6  7  2  0
  7  2  1  0
  1  8  1  0
  3  9  1  0
  4 10  1  0
  6 11  1  0
  7 12  1  0
M  END
>  <docking_score>  (4) 
-4.567

>  <plif_similarity>  (4) 
0.429

$$$$
Pocket2Mol_19
     RDKit          3D

 13 13  0  0  0  0  0  0  0  0999 V2000
   12.6890    8.7890   -1.1090 N   0  0  0  0  0  0  0  0  0  0  0  0
   12.3460    8.3140   -2.4370 C   0  0  0  0  0  0  0  0  0  0  0  0
   12.0030    7.0310   -2.6660 C   0  0  0  0  0  0  0  0  0  0  0  0
   11.5200    6.7540   -3.8410 C   0  0  0  0  0  0  0  0  0  0  0  0
   11.5030    7.6000   -4.7550 N   0  0  0  0  0  0  0  0  0  0  0  0
   11.9630    8.7610   -4.5950 C   0  0  0  0  0  0  0  0  0  0  0  0
   12.1980    9.1020   -3.5390 C   0  0  0  0  0  0  0  0  0  0  0  0
   12.0420    8.6320   -0.3230 H   0  0  0  0  0  0  0  0  0  0  0  0
   13.5790    9.2830   -0.9530 H   0  0  0  0  0  0  0  0  0  0  0  0
   12.1258    6.2553   -1.8958 H   0  0  0  0  0  0  0  0  0  0  0  0
   11.1168    5.7486   -4.0324 H   0  0  0  0  0  0  0  0  0  0  0  0
   12.1322    9.4258   -5.4549 H   0  0  0  0  0  0  0  0  0  0  0  0
   12.3195   10.1848   -3.3883 H   0  0  0  0  0  0  0  0  0  0  0  0
  1  2  1  0
  2  3  2  0
  3  4  1  0
  4  5  2  0
  5  6  1  0
  6  7  2  0
  7  2  1  0
  1  8  1  0
  1  9  1  0
  3 10  1  0
  4 11  1  0
  6 12  1  0
  7 13  1  0
M  END
>  <docking_score>  (5) 
-4.542

>  <plif_similarity>  (5) 
0.429

$$$$
Pocket2Mol_20
     RDKit          3D

 12 12  0  0  0  0  0  0  0  0999 V2000
   13.1560    8.5400   -1.2280 O   0  0  0  0  0  0  0  0  0  0  0  0
   12.4550    8.2920   -2.5820 C   0  0  0  0  0  0  0  0  0  0  0  0
   12.0350    6.9830   -2.5920 C   0  0  0  0  0  0  0  0  0  0  0  0
   11.6030    6.6500   -3.8390 C   0  0  0  0  0  0  0  0  0  0  0  0
   11.4780    7.6490   -4.9210 C   0  0  0  0  0  0  0  0  0  0  0  0
   11.8980    8.8900   -4.6480 N   0  0  0  0  0  0  0  0  0  0  0  0
   12.4120    9.1610   -3.5470 C   0  0  0  0  0  0  0  0  0  0  0  0
   12.6860    8.3310   -0.3820 H   0  0  0  0  0  0  0  0  0  0  0  0
   12.0464    6.3074   -1.7240 H   0  0  0  0  0  0  0  0  0  0  0  0
   11.3382    5.6031   -4.0484 H   0  0  0  0  0  0  0  0  0  0  0  0
   11.0598    7.3851   -5.9036 H   0  0  0  0  0  0  0  0  0  0  0  0
   12.8406   10.1614   -3.3871 H   0  0  0  0  0  0  0  0  0  0  0  0
  1  2  1  0
  2  3  1  0
  3  4  2  0
  4  5  1  0
  5  6  2  0
  6  7  1  0
  7  2  2  0
  1  8  1  0
  3  9  1  0
  4 10  1  0
  5 11  1  0
  7 12  1  0
M  END
>  <docking_score>  (6) 
-4.694

>  <plif_similarity>  (6) 
0.286

$$$$
Pocket2Mol_21
     RDKit          3D

 12 12  0  0  0  0  0  0  0  0999 V2000
   12.4900    8.8660   -1.5180 N   0  0  0  0  0  0  0  0  0  0  0  0
   12.1690    8.3110   -2.8210 C   0  0  0  0  0  0  0  0  0  0  0  0
   11.9160    6.9990   -2.9900 C   0  0  0  0  0  0  0  0  0  0  0  0
   11.4420    6.6380   -4.1460 C   0  0  0  0  0  0  0  0  0  0  0  0
   11.3560    7.4390   -5.0950 N   0  0  0  0  0  0  0  0  0  0  0  0
   11.7950    8.7150   -4.9460 C   0  0  0  0  0  0  0  0  0  0  0  0
   12.1830    9.2670   -3.6860 N   0  0  0  0  0  0  0  0  0  0  0  0
   13.4540    9.1670   -1.3100 H   0  0  0  0  0  0  0  0  0  0  0  0
   11.7550    8.9600   -0.8040 H   0  0  0  0  0  0  0  0  0  0  0  0
   12.1013    6.2682   -2.1890 H   0  0  0  0  0  0  0  0  0  0  0  0
   11.1089    5.5994   -4.2887 H   0  0  0  0  0  0  0  0  0  0  0  0
   11.8550    9.3552   -5.8385 H   0  0  0  0  0  0  0  0  0  0  0  0
  1  2  1  0
  2  3  1  0
  3  4  2  0
  4  5  1  0
  5  6  2  0
  6  7  1  0
  7  2  2  0
  1  8  1  0
  1  9  1  0
  3 10  1  0
  4 11  1  0
  6 12  1  0
M  END
>  <docking_score>  (7) 
-4.454

>  <plif_similarity>  (7) 
0.286

$$$$
Pocket2Mol_22
     RDKit          3D

  9  9  0  0  0  0  0  0  0  0999 V2000
   12.6510    8.1070   -1.9120 C   0  0  0  0  0  0  0  0  0  0  0  0
   11.9440    6.7430   -2.3270 C   0  0  0  0  0  0  0  0  0  0  0  0
   11.6400    6.8410   -3.7770 C   0  0  0  0  0  0  0  0  0  0  0  0
   11.9470    8.0890   -4.0740 O   0  0  0  0  0  0  0  0  0  0  0  0
   12.5850    8.7630   -3.1100 C   0  0  0  0  0  0  0  0  0  0  0  0
   13.0693    8.4275   -0.9464 H   0  0  0  0  0  0  0  0  0  0  0  0
   11.7231    5.8914   -1.6667 H   0  0  0  0  0  0  0  0  0  0  0  0
   11.2510    6.0585   -4.4451 H   0  0  0  0  0  0  0  0  0  0  0  0
   13.0199    9.7610   -3.2680 H   0  0  0  0  0  0  0  0  0  0  0  0
  1  2  1  0
  2  3  2  0
  3  4  1  0
  4  5  1  0
  5  1  2  0
  1  6  1  0
  2  7  1  0
  3  8  1  0
  5  9  1  0
M  END
>  <docking_score>  (8) 
-3.7

>  <plif_similarity>  (8) 
0.429

$$$$
Pocket2Mol_23
     RDKit          3D

 11 11  0  0  0  0  0  0  0  0999 V2000
   13.1820    8.2710   -0.9090 F   0  0  0  0  0  0  0  0  0  0  0  0
   12.5480    8.1140   -2.2900 C   0  0  0  0  0  0  0  0  0  0  0  0
   12.2170    6.8300   -2.5340 C   0  0  0  0  0  0  0  0  0  0  0  0
   11.5840    6.6030   -3.7820 C   0  0  0  0  0  0  0  0  0  0  0  0
   11.5400    7.5920   -4.6450 C   0  0  0  0  0  0  0  0  0  0  0  0
   12.0280    8.7990   -4.3390 N   0  0  0  0  0  0  0  0  0  0  0  0
   12.5560    9.0110   -3.2310 C   0  0  0  0  0  0  0  0  0  0  0  0
   12.4226    6.0199   -1.8188 H   0  0  0  0  0  0  0  0  0  0  0  0
   11.1415    5.6247   -4.0211 H   0  0  0  0  0  0  0  0  0  0  0  0
   11.0941    7.4247   -5.6366 H   0  0  0  0  0  0  0  0  0  0  0  0
   13.0408    9.9806   -3.0442 H   0  0  0  0  0  0  0  0  0  0  0  0
  1  2  1  0
  2  3  1  0
  3  4  2  0
  4  5  1  0
  5  6  2  0
  6  7  1  0
  7  2  2  0
  3  8  1  0
  4  9  1  0
  5 10  1  0
  7 11  1  0
M  END
>  <docking_score>  (9) 
-4.868

>  <plif_similarity>  (9) 
0.286

$$$$
Pocket2Mol_28
     RDKit          3D

 13 13  0  0  0  0  0  0  0  0999 V2000
   11.9270    6.4280   -2.3560 O   0  0  0  0  0  0  0  0  0  0  0  0
   11.7390    7.1240   -3.6050 C   0  0  0  0  0  0  0  0  0  0  0  0
   11.2250    6.5490   -4.6710 C   0  0  0  0  0  0  0  0  0  0  0  0
   11.1040    7.2880   -5.8290 C   0  0  0  0  0  0  0  0  0  0  0  0
   11.5470    8.5500   -5.8630 N   0  0  0  0  0  0  0  0  0  0  0  0
   12.0530    9.0760   -4.8550 C   0  0  0  0  0  0  0  0  0  0  0  0
   12.0660    8.4710   -3.7040 C   0  0  0  0  0  0  0  0  0  0  0  0
   12.7550    9.0330   -2.4420 O   0  0  0  0  0  0  0  0  0  0  0  0
   12.4290    6.8580   -1.6200 H   0  0  0  0  0  0  0  0  0  0  0  0
   10.8981    5.4992   -4.6391 H   0  0  0  0  0  0  0  0  0  0  0  0
   10.6443    6.8409   -6.7227 H   0  0  0  0  0  0  0  0  0  0  0  0
   12.5003   10.0774   -4.9398 H   0  0  0  0  0  0  0  0  0  0  0  0
   12.2090    9.4020   -1.7030 H   0  0  0  0  0  0  0  0  0  0  0  0
  1  2  1  0
  2  3  2  0
  3  4  1  0
  4  5  2  0
  5  6  1  0
  6  7  2  0
  7  8  1  0
  7  2  1  0
  1  9  1  0
  3 10  1  0
  4 11  1  0
  6 12  1  0
  8 13  1  0
M  END
>  <docking_score>  (10) 
-4.505

>  <plif_similarity>  (10) 
0.286

$$$$
Pocket2Mol_2
     RDKit          3D

 10 10  0  0  0  0  0  0  0  0999 V2000
   12.3340    7.1040   -2.2120 C   0  0  0  0  0  0  0  0  0  0  0  0
   12.1430    7.7620   -3.5220 C   0  0  0  0  0  0  0  0  0  0  0  0
   12.1140    9.1070   -3.1920 C   0  0  0  0  0  0  0  0  0  0  0  0
   12.4040    9.2880   -1.8070 N   0  0  0  0  0  0  0  0  0  0  0  0
   12.5830    8.1140   -1.4320 C   0  0  0  0  0  0  0  0  0  0  0  0
   12.2794    6.0343   -1.9614 H   0  0  0  0  0  0  0  0  0  0  0  0
   12.0474    7.2977   -4.5146 H   0  0  0  0  0  0  0  0  0  0  0  0
   11.8976    9.9215   -3.8989 H   0  0  0  0  0  0  0  0  0  0  0  0
   12.4510   10.1600   -1.2610 H   0  0  0  0  0  0  0  0  0  0  0  0
   12.9610    7.9270   -0.4161 H   0  0  0  0  0  0  0  0  0  0  0  0
  1  2  1  0
  2  3  2  0
  3  4  1  0
  4  5  1  0
  5  1  2  0
  1  6  1  0
  2  7  1  0
  3  8  1  0
  4  9  1  0
  5 10  1  0
M  END
>  <docking_score>  (11) 
-3.826

>  <plif_similarity>  (11) 
0.429

$$$$
Pocket2Mol_30
     RDKit          3D

 14 14  0  0  0  0  0  0  0  0999 V2000
   10.9050    6.9860   -6.2660 C   0  0  0  0  0  0  0  0  0  0  0  0
   11.2620    6.3190   -5.0560 O   0  0  0  0  0  0  0  0  0  0  0  0
   11.6680    7.2100   -3.9840 C   0  0  0  0  0  0  0  0  0  0  0  0
   11.8320    6.7730   -2.7200 C   0  0  0  0  0  0  0  0  0  0  0  0
   12.3900    7.5960   -1.8830 C   0  0  0  0  0  0  0  0  0  0  0  0
   12.6340    8.7770   -2.1930 N   0  0  0  0  0  0  0  0  0  0  0  0
   12.2570    9.0870   -3.5400 C   0  0  0  0  0  0  0  0  0  0  0  0
   11.8500    8.3320   -4.3840 N   0  0  0  0  0  0  0  0  0  0  0  0
   10.3983    7.9327   -6.0271 H   0  0  0  0  0  0  0  0  0  0  0  0
   11.8126    7.1936   -6.8518 H   0  0  0  0  0  0  0  0  0  0  0  0
   10.2289    6.3459   -6.8518 H   0  0  0  0  0  0  0  0  0  0  0  0
   11.5091    5.7678   -2.4113 H   0  0  0  0  0  0  0  0  0  0  0  0
   12.6532    7.2404   -0.8759 H   0  0  0  0  0  0  0  0  0  0  0  0
   12.3508   10.1416   -3.8384 H   0  0  0  0  0  0  0  0  0  0  0  0
  1  2  1  0
  2  3  1  0
  3  4  1  0
  4  5  2  0
  5  6  1  0
  6  7  2  0
  7  8  1  0
  8  3  2  0
  1  9  1  0
  1 10  1  0
  1 11  1  0
  4 12  1  0
  5 13  1  0
  7 14  1  0
M  END
>  <docking_score>  (12) 
-4.502

>  <plif_similarity>  (12) 
0.286

$$$$
Pocket2Mol_32
     RDKit          3D

 17 18  0  0  0  0  0  0  0  0999 V2000
   11.0820    7.1270   -6.0370 C   0  0  0  0  0  0  0  0  0  0  0  0
   11.4950    8.5940   -6.1840 C   0  0  0  0  0  0  0  0  0  0  0  0
   11.9590    9.3030   -5.1170 C   0  0  0  0  0  0  0  0  0  0  0  0
   12.0590    8.6900   -3.8870 C   0  0  0  0  0  0  0  0  0  0  0  0
   11.7240    7.3490   -3.9320 C   0  0  0  0  0  0  0  0  0  0  0  0
   11.2390    6.4950   -4.9060 C   0  0  0  0  0  0  0  0  0  0  0  0
   12.0140    6.9310   -2.4410 C   0  0  0  0  0  0  0  0  0  0  0  0
   12.5860    8.1540   -1.7750 C   0  0  0  0  0  0  0  0  0  0  0  0
   12.4800    9.1060   -2.7080 O   0  0  0  0  0  0  0  0  0  0  0  0
   10.6465    6.5979   -6.8974 H   0  0  0  0  0  0  0  0  0  0  0  0
   11.4159    9.0831   -7.1661 H   0  0  0  0  0  0  0  0  0  0  0  0
   12.2515   10.3566   -5.2366 H   0  0  0  0  0  0  0  0  0  0  0  0
   11.0162    5.4293   -4.7489 H   0  0  0  0  0  0  0  0  0  0  0  0
   11.0834    6.6231   -1.9418 H   0  0  0  0  0  0  0  0  0  0  0  0
   12.7081    6.0793   -2.3874 H   0  0  0  0  0  0  0  0  0  0  0  0
   12.0068    8.4185   -0.8780 H   0  0  0  0  0  0  0  0  0  0  0  0
   13.6214    8.0069   -1.4339 H   0  0  0  0  0  0  0  0  0  0  0  0
  1  2  2  0
  2  3  1  0
  3  4  2  0
  4  5  1  0
  5  6  2  0
  5  7  1  0
  7  8  1  0
  8  9  1  0
  6  1  1  0
  9  4  1  0
  1 10  1  0
  2 11  1  0
  3 12  1  0
  6 13  1  0
  7 14  1  0
  7 15  1  0
  8 16  1  0
  8 17  1  0
M  END
>  <docking_score>  (13) 
-6.325

>  <plif_similarity>  (13) 
0.286

$$$$
Pocket2Mol_35
     RDKit          3D

 16 17  0  0  0  0  0  0  0  0999 V2000
   11.4930    8.5770   -6.0460 C   0  0  0  0  0  0  0  0  0  0  0  0
   11.9150    9.2890   -4.9540 C   0  0  0  0  0  0  0  0  0  0  0  0
   12.0220    8.7270   -3.7390 C   0  0  0  0  0  0  0  0  0  0  0  0
   11.7800    7.3700   -3.8580 C   0  0  0  0  0  0  0  0  0  0  0  0
   11.2750    6.5510   -4.8520 C   0  0  0  0  0  0  0  0  0  0  0  0
   11.2040    7.2540   -6.0920 N   0  0  0  0  0  0  0  0  0  0  0  0
   11.9990    6.7430   -2.4620 C   0  0  0  0  0  0  0  0  0  0  0  0
   12.7650    8.0870   -1.7220 C   0  0  0  0  0  0  0  0  0  0  0  0
   12.5120    9.0910   -2.5700 O   0  0  0  0  0  0  0  0  0  0  0  0
   11.3765    9.1388   -6.9845 H   0  0  0  0  0  0  0  0  0  0  0  0
   12.1735   10.3512   -5.0760 H   0  0  0  0  0  0  0  0  0  0  0  0
   10.9706    5.5040   -4.7069 H   0  0  0  0  0  0  0  0  0  0  0  0
   11.0515    6.4789   -1.9695 H   0  0  0  0  0  0  0  0  0  0  0  0
   12.5550    5.7942   -2.4383 H   0  0  0  0  0  0  0  0  0  0  0  0
   12.3333    8.2901   -0.7309 H   0  0  0  0  0  0  0  0  0  0  0  0
   13.8400    7.9290   -1.5504 H   0  0  0  0  0  0  0  0  0  0  0  0
  1  2  1  0
  2  3  2  0
  3  4  1  0
  4  5  2  0
  5  6  1  0
  4  7  1  0
  7  8  1  0
  8  9  1  0
  6  1  2  0
  9  3  1  0
  1 10  1  0
  2 11  1  0
  5 12  1  0
  7 13  1  0
  7 14  1  0
  8 15  1  0
  8 16  1  0
M  END
>  <docking_score>  (14) 
-5.529

>  <plif_similarity>  (14) 
0.286

$$$$
Pocket2Mol_36
     RDKit          3D

 15 16  0  0  0  0  0  0  0  0999 V2000
   12.5010    7.9040   -2.4810 C   0  0  0  0  0  0  0  0  0  0  0  0
   11.9080    6.7610   -3.0890 C   0  0  0  0  0  0  0  0  0  0  0  0
   11.3740    6.6970   -4.4450 C   0  0  0  0  0  0  0  0  0  0  0  0
   11.4010    7.8370   -5.1580 C   0  0  0  0  0  0  0  0  0  0  0  0
   12.0640    8.8760   -4.5310 C   0  0  0  0  0  0  0  0  0  0  0  0
   12.5280    9.1070   -3.2480 C   0  0  0  0  0  0  0  0  0  0  0  0
   11.9110    9.9890   -5.7050 O   0  0  0  0  0  0  0  0  0  0  0  0
   11.6070    9.2020   -6.9250 C   0  0  0  0  0  0  0  0  0  0  0  0
   11.1320    8.0540   -6.4310 O   0  0  0  0  0  0  0  0  0  0  0  0
   12.9199    7.8615   -1.4648 H   0  0  0  0  0  0  0  0  0  0  0  0
   11.8472    5.8453   -2.4825 H   0  0  0  0  0  0  0  0  0  0  0  0
   10.9696    5.7634   -4.8632 H   0  0  0  0  0  0  0  0  0  0  0  0
   12.8701   10.0824   -2.8717 H   0  0  0  0  0  0  0  0  0  0  0  0
   10.8521    9.7084   -7.5444 H   0  0  0  0  0  0  0  0  0  0  0  0
   12.4793    9.0640   -7.5807 H   0  0  0  0  0  0  0  0  0  0  0  0
  1  2  2  0
  2  3  1  0
  3  4  2  0
  4  5  1  0
  5  6  2  0
  5  7  1  0
  7  8  1  0
  8  9  1  0
  6  1  1  0
  9  4  1  0
  1 10  1  0
  2 11  1  0
  3 12  1  0
  6 13  1  0
  8 14  1  0
  8 15  1  0
M  END
>  <docking_score>  (15) 
-5.826

>  <plif_similarity>  (15) 
0.429

$$$$
Pocket2Mol_37
     RDKit          3D

 17 18  0  0  0  0  0  0  0  0999 V2000
   12.4750    7.0640   -2.2440 C   0  0  0  0  0  0  0  0  0  0  0  0
   12.6680    8.5740   -2.5290 C   0  0  0  0  0  0  0  0  0  0  0  0
   12.3740    9.3920   -3.6210 C   0  0  0  0  0  0  0  0  0  0  0  0
   11.9140    8.5320   -4.6550 C   0  0  0  0  0  0  0  0  0  0  0  0
   11.7450    8.7900   -5.9380 O   0  0  0  0  0  0  0  0  0  0  0  0
   11.2370    7.7840   -6.6580 C   0  0  0  0  0  0  0  0  0  0  0  0
   11.1330    6.6260   -5.7040 C   0  0  0  0  0  0  0  0  0  0  0  0
   11.6080    7.2330   -4.2900 C   0  0  0  0  0  0  0  0  0  0  0  0
   11.6400    6.5170   -3.1070 C   0  0  0  0  0  0  0  0  0  0  0  0
   12.9701    6.5179   -1.4275 H   0  0  0  0  0  0  0  0  0  0  0  0
   13.1357    9.1166   -1.6942 H   0  0  0  0  0  0  0  0  0  0  0  0
   11.5915   10.1172   -3.3532 H   0  0  0  0  0  0  0  0  0  0  0  0
   13.2583    9.9625   -3.9411 H   0  0  0  0  0  0  0  0  0  0  0  0
   10.9553    7.8001   -7.7212 H   0  0  0  0  0  0  0  0  0  0  0  0
   10.8068    5.5984   -5.9224 H   0  0  0  0  0  0  0  0  0  0  0  0
   10.6309    6.5003   -2.6696 H   0  0  0  0  0  0  0  0  0  0  0  0
   11.9830    5.4950   -3.3259 H   0  0  0  0  0  0  0  0  0  0  0  0
  1  2  2  0
  2  3  1  0
  3  4  1  0
  4  5  1  0
  5  6  1  0
  6  7  2  0
  7  8  1  0
  8  9  1  0
  9  1  1  0
  8  4  2  0
  1 10  1  0
  2 11  1  0
  3 12  1  0
  3 13  1  0
  6 14  1  0
  7 15  1  0
  9 16  1  0
  9 17  1  0
M  END
>  <docking_score>  (16) 
-6.218

>  <plif_similarity>  (16) 
0.286

$$$$
Pocket2Mol_38
     RDKit          3D

 15 16  0  0  0  0  0  0  0  0999 V2000
   10.9240    7.2490   -6.0260 C   0  0  0  0  0  0  0  0  0  0  0  0
   11.2110    8.5870   -6.0830 C   0  0  0  0  0  0  0  0  0  0  0  0
   11.9170    9.4120   -5.2330 C   0  0  0  0  0  0  0  0  0  0  0  0
   12.0330    8.7130   -4.0000 C   0  0  0  0  0  0  0  0  0  0  0  0
   12.4070    9.1670   -2.8190 O   0  0  0  0  0  0  0  0  0  0  0  0
   12.4740    8.2460   -1.8510 C   0  0  0  0  0  0  0  0  0  0  0  0
   12.0360    6.9090   -2.5610 C   0  0  0  0  0  0  0  0  0  0  0  0
   11.6990    7.3710   -4.0150 C   0  0  0  0  0  0  0  0  0  0  0  0
   11.2530    6.4850   -4.9790 C   0  0  0  0  0  0  0  0  0  0  0  0
   10.4020    6.7843   -6.8754 H   0  0  0  0  0  0  0  0  0  0  0  0
   10.8039    9.0967   -6.9687 H   0  0  0  0  0  0  0  0  0  0  0  0
   12.3121   10.4125   -5.4631 H   0  0  0  0  0  0  0  0  0  0  0  0
   12.7675    8.3891   -0.8006 H   0  0  0  0  0  0  0  0  0  0  0  0
   11.9809    5.8960   -2.1359 H   0  0  0  0  0  0  0  0  0  0  0  0
   11.1840    5.3899   -4.9013 H   0  0  0  0  0  0  0  0  0  0  0  0
  1  2  2  0
  2  3  1  0
  3  4  2  0
  4  5  1  0
  5  6  1  0
  6  7  2  0
  7  8  1  0
  8  9  2  0
  9  1  1  0
  8  4  1  0
  1 10  1  0
  2 11  1  0
  3 12  1  0
  6 13  1  0
  7 14  1  0
  9 15  1  0
M  END
>  <docking_score>  (17) 
-6.235

>  <plif_similarity>  (17) 
0.286

$$$$
Pocket2Mol_39
     RDKit          3D

 14 15  0  0  0  0  0  0  0  0999 V2000
   11.4560    8.6520   -6.0310 C   0  0  0  0  0  0  0  0  0  0  0  0
   11.9670    9.3690   -5.0490 C   0  0  0  0  0  0  0  0  0  0  0  0
   12.0170    8.7240   -3.8250 C   0  0  0  0  0  0  0  0  0  0  0  0
   12.4430    9.0930   -2.6320 O   0  0  0  0  0  0  0  0  0  0  0  0
   12.5820    8.1010   -1.7460 C   0  0  0  0  0  0  0  0  0  0  0  0
   12.0170    6.7110   -2.5370 C   0  0  0  0  0  0  0  0  0  0  0  0
   11.7120    7.3800   -3.9300 C   0  0  0  0  0  0  0  0  0  0  0  0
   11.2350    6.5620   -4.9390 C   0  0  0  0  0  0  0  0  0  0  0  0
   11.2180    7.3420   -6.1460 N   0  0  0  0  0  0  0  0  0  0  0  0
   11.1743    9.2396   -6.9172 H   0  0  0  0  0  0  0  0  0  0  0  0
   12.3255   10.3991   -5.1914 H   0  0  0  0  0  0  0  0  0  0  0  0
   12.9783    8.1715   -0.7223 H   0  0  0  0  0  0  0  0  0  0  0  0
   11.9008    5.6741   -2.1886 H   0  0  0  0  0  0  0  0  0  0  0  0
   10.9265    5.5111   -4.8365 H   0  0  0  0  0  0  0  0  0  0  0  0
  1  2  1  0
  2  3  2  0
  3  4  1  0
  4  5  1  0
  5  6  2  0
  6  7  1  0
  7  8  2  0
  8  9  1  0
  9  1  2  0
  7  3  1  0
  1 10  1  0
  2 11  1  0
  5 12  1  0
  6 13  1  0
  8 14  1  0
M  END
>  <docking_score>  (18) 
-5.577

>  <plif_similarity>  (18) 
0.286

$$$$
Pocket2Mol_41
     RDKit          3D

 15 16  0  0  0  0  0  0  0  0999 V2000
   12.4310    7.7480   -2.6220 C   0  0  0  0  0  0  0  0  0  0  0  0
   11.8150    6.6660   -3.0560 C   0  0  0  0  0  0  0  0  0  0  0  0
   11.3010    6.6260   -4.4350 C   0  0  0  0  0  0  0  0  0  0  0  0
   11.5850    7.8690   -4.9710 C   0  0  0  0  0  0  0  0  0  0  0  0
   12.2210    9.0080   -4.5130 C   0  0  0  0  0  0  0  0  0  0  0  0
   12.7260    8.9650   -3.1840 C   0  0  0  0  0  0  0  0  0  0  0  0
   12.2820    9.9880   -5.3940 O   0  0  0  0  0  0  0  0  0  0  0  0
   11.6580    9.7500   -6.5530 C   0  0  0  0  0  0  0  0  0  0  0  0
   11.0880    7.9700   -6.5520 S   0  0  0  0  0  0  0  0  0  0  0  0
   12.7853    7.6552   -1.5847 H   0  0  0  0  0  0  0  0  0  0  0  0
   11.6859    5.7987   -2.3919 H   0  0  0  0  0  0  0  0  0  0  0  0
   10.7973    5.7849   -4.9339 H   0  0  0  0  0  0  0  0  0  0  0  0
   13.2689    9.7807   -2.6841 H   0  0  0  0  0  0  0  0  0  0  0  0
   10.7906   10.4190   -6.6535 H   0  0  0  0  0  0  0  0  0  0  0  0
   12.3401    9.9309   -7.3968 H   0  0  0  0  0  0  0  0  0  0  0  0
  1  2  2  0
  2  3  1  0
  3  4  2  0
  4  5  1  0
  5  6  2  0
  5  7  1  0
  7  8  1  0
  8  9  1  0
  6  1  1  0
  9  4  1  0
  1 10  1  0
  2 11  1  0
  3 12  1  0
  6 13  1  0
  8 14  1  0
  8 15  1  0
M  END
>  <docking_score>  (19) 
-5.778

>  <plif_similarity>  (19) 
0.429

$$$$
Pocket2Mol_43
     RDKit          3D

 16 17  0  0  0  0  0  0  0  0999 V2000
   12.7390    8.5010   -2.5220 C   0  0  0  0  0  0  0  0  0  0  0  0
   12.4440    7.1900   -2.4140 C   0  0  0  0  0  0  0  0  0  0  0  0
   11.7580    6.4920   -3.2320 C   0  0  0  0  0  0  0  0  0  0  0  0
   11.3700    7.0410   -4.4570 C   0  0  0  0  0  0  0  0  0  0  0  0
   11.8960    8.3110   -4.6130 C   0  0  0  0  0  0  0  0  0  0  0  0
   12.4110    9.2670   -3.7560 C   0  0  0  0  0  0  0  0  0  0  0  0
   11.4010    8.9250   -6.0570 N   0  0  0  0  0  0  0  0  0  0  0  0
   11.2100    7.1860   -6.6890 C   0  0  0  0  0  0  0  0  0  0  0  0
   10.9730    6.4760   -5.5810 O   0  0  0  0  0  0  0  0  0  0  0  0
   13.2312    9.0144   -1.6829 H   0  0  0  0  0  0  0  0  0  0  0  0
   12.8356    6.6680   -1.5284 H   0  0  0  0  0  0  0  0  0  0  0  0
   11.4728    5.4614   -2.9740 H   0  0  0  0  0  0  0  0  0  0  0  0
   12.5466   10.3425   -3.9427 H   0  0  0  0  0  0  0  0  0  0  0  0
   11.2590    9.8690   -6.4450 H   0  0  0  0  0  0  0  0  0  0  0  0
   10.3661    7.1131   -7.3908 H   0  0  0  0  0  0  0  0  0  0  0  0
   12.0913    6.8325   -7.2443 H   0  0  0  0  0  0  0  0  0  0  0  0
  1  2  2  0
  2  3  1  0
  3  4  2  0
  4  5  1  0
  5  6  2  0
  5  7  1  0
  7  8  1  0
  8  9  1  0
  6  1  1  0
  9  4  1  0
  1 10  1  0
  2 11  1  0
  3 12  1  0
  6 13  1  0
  7 14  1  0
  8 15  1  0
  8 16  1  0
M  END
>  <docking_score>  (20) 
-5.766

>  <plif_similarity>  (20) 
0.429

$$$$
Pocket2Mol_44
     RDKit          3D

  8  8  0  0  0  0  0  0  0  0999 V2000
   12.0580    6.9230   -2.3210 C   0  0  0  0  0  0  0  0  0  0  0  0
   12.5950    8.0740   -2.0450 C   0  0  0  0  0  0  0  0  0  0  0  0
   12.3830    8.9690   -3.3730 S   0  0  0  0  0  0  0  0  0  0  0  0
   11.6720    7.5680   -4.4380 C   0  0  0  0  0  0  0  0  0  0  0  0
   11.6660    6.6450   -3.4700 N   0  0  0  0  0  0  0  0  0  0  0  0
   11.9471    6.1766   -1.5206 H   0  0  0  0  0  0  0  0  0  0  0  0
   13.0879    8.3741   -1.1085 H   0  0  0  0  0  0  0  0  0  0  0  0
   11.3677    7.5285   -5.4943 H   0  0  0  0  0  0  0  0  0  0  0  0
  1  2  2  0
  2  3  1  0
  3  4  1  0
  4  5  2  0
  5  1  1  0
  1  6  1  0
  2  7  1  0
  4  8  1  0
M  END
>  <docking_score>  (21) 
-2.919

>  <plif_similarity>  (21) 
0.286

$$$$
Pocket2Mol_45
     RDKit          3D

 14 15  0  0  0  0  0  0  0  0999 V2000
   12.3260    7.7110   -2.0300 C   0  0  0  0  0  0  0  0  0  0  0  0
   11.9520    6.7100   -2.8840 C   0  0  0  0  0  0  0  0  0  0  0  0
   11.5450    6.9900   -4.1500 C   0  0  0  0  0  0  0  0  0  0  0  0
   11.7280    8.3390   -4.3910 C   0  0  0  0  0  0  0  0  0  0  0  0
   12.0140    9.4420   -3.6060 C   0  0  0  0  0  0  0  0  0  0  0  0
   12.4240    9.0350   -2.3010 N   0  0  0  0  0  0  0  0  0  0  0  0
   11.1780    8.3800   -5.9540 O   0  0  0  0  0  0  0  0  0  0  0  0
   11.2770    6.9600   -6.3760 C   0  0  0  0  0  0  0  0  0  0  0  0
   11.2650    6.2790   -5.2250 O   0  0  0  0  0  0  0  0  0  0  0  0
   12.5764    7.4054   -1.0034 H   0  0  0  0  0  0  0  0  0  0  0  0
   11.9811    5.6650   -2.5416 H   0  0  0  0  0  0  0  0  0  0  0  0
   11.9362   10.4868   -3.9411 H   0  0  0  0  0  0  0  0  0  0  0  0
   10.4202    6.6786   -7.0058 H   0  0  0  0  0  0  0  0  0  0  0  0
   12.1756    6.7587   -6.9777 H   0  0  0  0  0  0  0  0  0  0  0  0
  1  2  1  0
  2  3  2  0
  3  4  1  0
  4  5  2  0
  5  6  1  0
  4  7  1  0
  7  8  1  0
  8  9  1  0
  6  1  2  0
  9  3  1  0
  1 10  1  0
  2 11  1  0
  5 12  1  0
  8 13  1  0
  8 14  1  0
M  END
>  <docking_score>  (22) 
-5.169

>  <plif_similarity>  (22) 
0.286

$$$$
Pocket2Mol_46
     RDKit          3D

 18 19  0  0  0  0  0  0  0  0999 V2000
   12.3870    7.9970   -2.0030 C   0  0  0  0  0  0  0  0  0  0  0  0
   12.0920    6.7680   -2.4660 C   0  0  0  0  0  0  0  0  0  0  0  0
   11.5760    6.5420   -3.7100 C   0  0  0  0  0  0  0  0  0  0  0  0
   11.5830    7.6230   -4.4840 C   0  0  0  0  0  0  0  0  0  0  0  0
   12.2460    8.7570   -4.2340 C   0  0  0  0  0  0  0  0  0  0  0  0
   12.3850    9.1150   -2.9600 C   0  0  0  0  0  0  0  0  0  0  0  0
   12.2840    9.6650   -5.0130 O   0  0  0  0  0  0  0  0  0  0  0  0
   11.2110    9.9340   -5.7640 C   0  0  0  0  0  0  0  0  0  0  0  0
   10.6050    8.8490   -6.3260 C   0  0  0  0  0  0  0  0  0  0  0  0
   10.9000    7.5010   -5.7270 O   0  0  0  0  0  0  0  0  0  0  0  0
   12.6225    8.1608   -0.9411 H   0  0  0  0  0  0  0  0  0  0  0  0
   12.2754    5.9038   -1.8106 H   0  0  0  0  0  0  0  0  0  0  0  0
   11.1933    5.5644   -4.0385 H   0  0  0  0  0  0  0  0  0  0  0  0
   12.4902   10.1642   -2.6467 H   0  0  0  0  0  0  0  0  0  0  0  0
   10.4719   10.4452   -5.1296 H   0  0  0  0  0  0  0  0  0  0  0  0
   11.5729   10.5478   -6.6020 H   0  0  0  0  0  0  0  0  0  0  0  0
    9.5185    9.0079   -6.2608 H   0  0  0  0  0  0  0  0  0  0  0  0
   11.0126    8.7975   -7.3464 H   0  0  0  0  0  0  0  0  0  0  0  0
  1  2  2  0
  2  3  1  0
  3  4  2  0
  4  5  1  0
  5  6  2  0
  5  7  1  0
  7  8  1  0
  8  9  1  0
  9 10  1  0
  6  1  1  0
 10  4  1  0
  1 11  1  0
  2 12  1  0
  3 13  1  0
  6 14  1  0
  8 15  1  0
  8 16  1  0
  9 17  1  0
  9 18  1  0
M  END
>  <docking_score>  (23) 
-6.359

>  <plif_similarity>  (23) 
0.429

$$$$
Pocket2Mol_47
     RDKit          3D

 16 17  0  0  0  0  0  0  0  0999 V2000
   11.0790    9.5460   -6.1290 C   0  0  0  0  0  0  0  0  0  0  0  0
   10.6520    8.7540   -6.4080 C   0  0  0  0  0  0  0  0  0  0  0  0
   10.8960    7.6290   -5.9400 O   0  0  0  0  0  0  0  0  0  0  0  0
   11.5390    7.7320   -4.5350 C   0  0  0  0  0  0  0  0  0  0  0  0
   11.5220    6.4840   -3.9380 C   0  0  0  0  0  0  0  0  0  0  0  0
   12.1270    6.6710   -2.6380 C   0  0  0  0  0  0  0  0  0  0  0  0
   12.5060    7.9020   -2.2300 C   0  0  0  0  0  0  0  0  0  0  0  0
   12.6310    8.9750   -2.9410 C   0  0  0  0  0  0  0  0  0  0  0  0
   12.0930    8.9590   -4.2170 C   0  0  0  0  0  0  0  0  0  0  0  0
   11.8650    9.9040   -5.1080 O   0  0  0  0  0  0  0  0  0  0  0  0
   10.8822   10.3847   -6.8130 H   0  0  0  0  0  0  0  0  0  0  0  0
    9.8897    8.8298   -7.1974 H   0  0  0  0  0  0  0  0  0  0  0  0
   11.1310    5.5476   -4.3625 H   0  0  0  0  0  0  0  0  0  0  0  0
   12.2797    5.8052   -1.9768 H   0  0  0  0  0  0  0  0  0  0  0  0
   12.7371    8.0043   -1.1594 H   0  0  0  0  0  0  0  0  0  0  0  0
   13.1442    9.8650   -2.5479 H   0  0  0  0  0  0  0  0  0  0  0  0
  1  2  2  0
  2  3  1  0
  3  4  1  0
  4  5  2  0
  5  6  1  0
  6  7  2  0
  7  8  1  0
  8  9  2  0
  9 10  1  0
 10  1  1  0
  9  4  1  0
  1 11  1  0
  2 12  1  0
  5 13  1  0
  6 14  1  0
  7 15  1  0
  8 16  1  0
M  END
>  <docking_score>  (24) 
-6.282

>  <plif_similarity>  (24) 
0.429

$$$$
Pocket2Mol_48
     RDKit          3D

 19 20  0  0  0  0  0  0  0  0999 V2000
   11.1970    7.1110   -6.2790 C   0  0  0  0  0  0  0  0  0  0  0  0
   11.5150    8.4510   -6.5110 C   0  0  0  0  0  0  0  0  0  0  0  0
   11.8610    9.2880   -5.5490 C   0  0  0  0  0  0  0  0  0  0  0  0
   11.8950    8.8640   -4.2310 C   0  0  0  0  0  0  0  0  0  0  0  0
   11.6460    7.5090   -4.1130 C   0  0  0  0  0  0  0  0  0  0  0  0
   11.2340    6.5110   -4.9790 C   0  0  0  0  0  0  0  0  0  0  0  0
   11.6830    6.9430   -2.5650 C   0  0  0  0  0  0  0  0  0  0  0  0
   12.0070    7.8350   -1.7810 N   0  0  0  0  0  0  0  0  0  0  0  0
   12.4140    8.6270   -2.0620 C   0  0  0  0  0  0  0  0  0  0  0  0
   12.2670    9.4480   -3.1080 O   0  0  0  0  0  0  0  0  0  0  0  0
   10.9041    6.4864   -7.1358 H   0  0  0  0  0  0  0  0  0  0  0  0
   11.4755    8.8275   -7.5438 H   0  0  0  0  0  0  0  0  0  0  0  0
   12.1235   10.3272   -5.7963 H   0  0  0  0  0  0  0  0  0  0  0  0
   10.9859    5.4707   -4.7217 H   0  0  0  0  0  0  0  0  0  0  0  0
   10.6846    6.5695   -2.2936 H   0  0  0  0  0  0  0  0  0  0  0  0
   12.4247    6.1330   -2.5034 H   0  0  0  0  0  0  0  0  0  0  0  0
   12.6560    7.4030   -1.1080 H   0  0  0  0  0  0  0  0  0  0  0  0
   12.2590    9.2973   -1.2037 H   0  0  0  0  0  0  0  0  0  0  0  0
   13.3157    8.1347   -2.4551 H   0  0  0  0  0  0  0  0  0  0  0  0
  1  2  2  0
  2  3  1  0
  3  4  2  0
  4  5  1  0
  5  6  2  0
  5  7  1  0
  7  8  1  0
  8  9  1  0
  9 10  1  0
  6  1  1  0
 10  4  1  0
  1 11  1  0
  2 12  1  0
  3 13  1  0
  6 14  1  0
  7 15  1  0
  7 16  1  0
  8 17  1  0
  9 18  1  0
  9 19  1  0
M  END
>  <docking_score>  (25) 
-6.372

>  <plif_similarity>  (25) 
0.286

$$$$
Pocket2Mol_49
     RDKit          3D

 20 21  0  0  0  0  0  0  0  0999 V2000
   11.2310    7.2190   -6.4320 C   0  0  0  0  0  0  0  0  0  0  0  0
   11.6220    8.5530   -6.5680 C   0  0  0  0  0  0  0  0  0  0  0  0
   11.9820    9.3080   -5.5450 C   0  0  0  0  0  0  0  0  0  0  0  0
   11.9570    8.7990   -4.2570 C   0  0  0  0  0  0  0  0  0  0  0  0
   11.6370    7.4540   -4.2340 C   0  0  0  0  0  0  0  0  0  0  0  0
   11.2010    6.5370   -5.1730 C   0  0  0  0  0  0  0  0  0  0  0  0
   11.6020    6.7900   -2.7250 C   0  0  0  0  0  0  0  0  0  0  0  0
   12.8440    7.1410   -2.0930 C   0  0  0  0  0  0  0  0  0  0  0  0
   12.4020    8.3980   -2.0960 C   0  0  0  0  0  0  0  0  0  0  0  0
   12.3250    9.2910   -3.0900 O   0  0  0  0  0  0  0  0  0  0  0  0
   10.9319    6.6660   -7.3347 H   0  0  0  0  0  0  0  0  0  0  0  0
   11.6307    8.9962   -7.5747 H   0  0  0  0  0  0  0  0  0  0  0  0
   12.3031   10.3459   -5.7171 H   0  0  0  0  0  0  0  0  0  0  0  0
   10.8940    5.4966   -4.9902 H   0  0  0  0  0  0  0  0  0  0  0  0
   10.7560    7.1962   -2.1511 H   0  0  0  0  0  0  0  0  0  0  0  0
   11.4769    5.6983   -2.7748 H   0  0  0  0  0  0  0  0  0  0  0  0
   12.9926    6.7062   -1.0936 H   0  0  0  0  0  0  0  0  0  0  0  0
   13.8180    6.8620   -2.5213 H   0  0  0  0  0  0  0  0  0  0  0  0
   11.3674    8.3166   -1.7313 H   0  0  0  0  0  0  0  0  0  0  0  0
   13.2577    8.8476   -1.5710 H   0  0  0  0  0  0  0  0  0  0  0  0
  1  2  2  0
  2  3  1  0
  3  4  2  0
  4  5  1  0
  5  6  2  0
  5  7  1  0
  7  8  1  0
  8  9  1  0
  9 10  1  0
  6  1  1  0
 10  4  1  0
  1 11  1  0
  2 12  1  0
  3 13  1  0
  6 14  1  0
  7 15  1  0
  7 16  1  0
  8 17  1  0
  8 18  1  0
  9 19  1  0
  9 20  1  0
M  END
>  <docking_score>  (26) 
-6.851

>  <plif_similarity>  (26) 
0.286

$$$$
Pocket2Mol_50
     RDKit          3D

 16 17  0  0  0  0  0  0  0  0999 V2000
   13.0290    8.6410   -1.2170 O   0  0  0  0  0  0  0  0  0  0  0  0
   12.5110    8.3040   -2.5070 C   0  0  0  0  0  0  0  0  0  0  0  0
   12.0950    6.9660   -2.6220 C   0  0  0  0  0  0  0  0  0  0  0  0
   11.5410    6.5550   -3.9980 C   0  0  0  0  0  0  0  0  0  0  0  0
   11.5050    7.6780   -4.8060 C   0  0  0  0  0  0  0  0  0  0  0  0
   12.0480    8.9480   -4.7370 C   0  0  0  0  0  0  0  0  0  0  0  0
   12.4170    9.2580   -3.4250 C   0  0  0  0  0  0  0  0  0  0  0  0
   11.7600    9.7180   -5.7680 O   0  0  0  0  0  0  0  0  0  0  0  0
   10.9340    9.1760   -6.6700 C   0  0  0  0  0  0  0  0  0  0  0  0
   11.0120    7.7170   -6.3690 O   0  0  0  0  0  0  0  0  0  0  0  0
   13.2680    7.9240   -0.5780 H   0  0  0  0  0  0  0  0  0  0  0  0
   12.1612    6.2583   -1.7825 H   0  0  0  0  0  0  0  0  0  0  0  0
   11.2273    5.5417   -4.2894 H   0  0  0  0  0  0  0  0  0  0  0  0
   12.6313   10.3015   -3.1509 H   0  0  0  0  0  0  0  0  0  0  0  0
    9.9080    9.5512   -6.5411 H   0  0  0  0  0  0  0  0  0  0  0  0
   11.2087    9.4181   -7.7073 H   0  0  0  0  0  0  0  0  0  0  0  0
  1  2  1  0
  2  3  1  0
  3  4  2  0
  4  5  1  0
  5  6  2  0
  6  7  1  0
  6  8  1  0
  8  9  1  0
  9 10  1  0
  7  2  2  0
 10  5  1  0
  1 11  1  0
  3 12  1  0
  4 13  1  0
  7 14  1  0
  9 15  1  0
  9 16  1  0
M  END
>  <docking_score>  (27) 
-6.023

>  <plif_similarity>  (27) 
0.429

$$$$
Pocket2Mol_51
     RDKit          3D

 15 16  0  0  0  0  0  0  0  0999 V2000
   13.1890    8.3350   -1.3130 F   0  0  0  0  0  0  0  0  0  0  0  0
   12.5680    8.0850   -2.6710 C   0  0  0  0  0  0  0  0  0  0  0  0
   12.0500    6.9010   -2.8490 C   0  0  0  0  0  0  0  0  0  0  0  0
   11.4060    6.5500   -4.1270 C   0  0  0  0  0  0  0  0  0  0  0  0
   11.5300    7.6840   -4.9100 C   0  0  0  0  0  0  0  0  0  0  0  0
   12.0920    8.9350   -4.7350 C   0  0  0  0  0  0  0  0  0  0  0  0
   12.7030    9.1890   -3.4770 C   0  0  0  0  0  0  0  0  0  0  0  0
   11.9910    9.7280   -5.7850 O   0  0  0  0  0  0  0  0  0  0  0  0
   11.3010    9.2230   -6.8140 C   0  0  0  0  0  0  0  0  0  0  0  0
   10.9000    7.4390   -6.4270 S   0  0  0  0  0  0  0  0  0  0  0  0
   12.0943    6.1587   -2.0385 H   0  0  0  0  0  0  0  0  0  0  0  0
   10.9309    5.5959   -4.3989 H   0  0  0  0  0  0  0  0  0  0  0  0
   13.2062   10.1250   -3.1929 H   0  0  0  0  0  0  0  0  0  0  0  0
   10.3702    9.7923   -6.9536 H   0  0  0  0  0  0  0  0  0  0  0  0
   11.8941    9.2878   -7.7381 H   0  0  0  0  0  0  0  0  0  0  0  0
  1  2  1  0
  2  3  1  0
  3  4  2  0
  4  5  1  0
  5  6  2  0
  6  7  1  0
  6  8  1  0
  8  9  1  0
  9 10  1  0
  7  2  2  0
 10  5  1  0
  3 11  1  0
  4 12  1  0
  7 13  1  0
  9 14  1  0
  9 15  1  0
M  END
>  <docking_score>  (28) 
-6.245

>  <plif_similarity>  (28) 
0.429

$$$$
Pocket2Mol_52
     RDKit          3D

 15 16  0  0  0  0  0  0  0  0999 V2000
   10.7420    6.5550   -7.2530 O   0  0  0  0  0  0  0  0  0  0  0  0
   11.2550    7.2160   -6.1570 N   0  0  0  0  0  0  0  0  0  0  0  0
   11.4750    8.5850   -6.2340 C   0  0  0  0  0  0  0  0  0  0  0  0
   12.0040    9.3010   -5.1760 C   0  0  0  0  0  0  0  0  0  0  0  0
   12.0370    8.7320   -3.9140 C   0  0  0  0  0  0  0  0  0  0  0  0
   12.4530    9.1690   -2.7410 O   0  0  0  0  0  0  0  0  0  0  0  0
   12.5770    8.2310   -1.7960 C   0  0  0  0  0  0  0  0  0  0  0  0
   12.0130    6.8000   -2.5080 C   0  0  0  0  0  0  0  0  0  0  0  0
   11.7260    7.3840   -3.9420 C   0  0  0  0  0  0  0  0  0  0  0  0
   11.2550    6.5100   -4.9050 C   0  0  0  0  0  0  0  0  0  0  0  0
   11.2210    9.1152   -7.1637 H   0  0  0  0  0  0  0  0  0  0  0  0
   12.3962   10.3162   -5.3358 H   0  0  0  0  0  0  0  0  0  0  0  0
   12.9629    8.3606   -0.7741 H   0  0  0  0  0  0  0  0  0  0  0  0
   11.8875    5.7866   -2.0989 H   0  0  0  0  0  0  0  0  0  0  0  0
   10.9393    5.4688   -4.7429 H   0  0  0  0  0  0  0  0  0  0  0  0
  1  2  1  0
  2  3  2  0
  3  4  1  0
  4  5  2  0
  5  6  1  0
  6  7  1  0
  7  8  2  0
  8  9  1  0
  9 10  2  0
 10  2  1  0
  9  5  1  0
  3 11  1  0
  4 12  1  0
  7 13  1  0
  8 14  1  0
 10 15  1  0
M  CHG  2   1  -1   2   1
M  END
>  <docking_score>  (29) 
-6.018

>  <plif_similarity>  (29) 
0.286

$$$$
Pocket2Mol_53
     RDKit          3D

 17 18  0  0  0  0  0  0  0  0999 V2000
   10.5980    8.6410   -6.4990 C   0  0  0  0  0  0  0  0  0  0  0  0
   11.0000    7.6140   -5.9610 N   0  0  0  0  0  0  0  0  0  0  0  0
   11.5510    7.7580   -4.5250 C   0  0  0  0  0  0  0  0  0  0  0  0
   11.6260    6.5130   -3.9260 C   0  0  0  0  0  0  0  0  0  0  0  0
   12.1420    6.7270   -2.6040 C   0  0  0  0  0  0  0  0  0  0  0  0
   12.5370    8.0070   -2.1470 C   0  0  0  0  0  0  0  0  0  0  0  0
   12.4090    9.1030   -2.8850 C   0  0  0  0  0  0  0  0  0  0  0  0
   12.0490    9.0140   -4.2330 C   0  0  0  0  0  0  0  0  0  0  0  0
   11.7340    9.9420   -5.1160 O   0  0  0  0  0  0  0  0  0  0  0  0
   10.9260    9.5380   -6.1020 C   0  0  0  0  0  0  0  0  0  0  0  0
    9.9196    8.6091   -7.3643 H   0  0  0  0  0  0  0  0  0  0  0  0
   11.3453    5.5487   -4.3748 H   0  0  0  0  0  0  0  0  0  0  0  0
   12.2335    5.8677   -1.9233 H   0  0  0  0  0  0  0  0  0  0  0  0
   12.9677    8.0973   -1.1389 H   0  0  0  0  0  0  0  0  0  0  0  0
   12.5877   10.0894   -2.4322 H   0  0  0  0  0  0  0  0  0  0  0  0
    9.9796   10.0350   -5.8427 H   0  0  0  0  0  0  0  0  0  0  0  0
   11.6859    9.6882   -6.8831 H   0  0  0  0  0  0  0  0  0  0  0  0
  1  2  2  0
  2  3  1  0
  3  4  2  0
  4  5  1  0
  5  6  2  0
  6  7  1  0
  7  8  2  0
  8  9  1  0
  9 10  1  0
 10  1  1  0
  8  3  1  0
  1 11  1  0
  4 12  1  0
  5 13  1  0
  6 14  1  0
  7 15  1  0
 10 16  1  0
 10 17  1  0
M  END
>  <docking_score>  (30) 
-6.283

>  <plif_similarity>  (30) 
0.429

$$$$
Pocket2Mol_54
     RDKit          3D

 18 19  0  0  0  0  0  0  0  0999 V2000
   13.1760    8.7940   -1.2490 O   0  0  0  0  0  0  0  0  0  0  0  0
   12.5880    8.3380   -2.4710 C   0  0  0  0  0  0  0  0  0  0  0  0
   12.2530    6.9730   -2.4670 C   0  0  0  0  0  0  0  0  0  0  0  0
   11.6290    6.4350   -3.7670 C   0  0  0  0  0  0  0  0  0  0  0  0
   11.4600    7.4950   -4.6390 C   0  0  0  0  0  0  0  0  0  0  0  0
   11.9210    8.7980   -4.6950 C   0  0  0  0  0  0  0  0  0  0  0  0
   12.3640    9.2190   -3.4380 C   0  0  0  0  0  0  0  0  0  0  0  0
   11.5080    9.4760   -5.7480 O   0  0  0  0  0  0  0  0  0  0  0  0
   10.6560    8.8240   -6.5460 C   0  0  0  0  0  0  0  0  0  0  0  0
   10.8320    7.1100   -6.0340 C   0  0  0  0  0  0  0  0  0  0  0  0
   12.6050    8.9620   -0.4580 H   0  0  0  0  0  0  0  0  0  0  0  0
   12.4257    6.3305   -1.5910 H   0  0  0  0  0  0  0  0  0  0  0  0
   11.3630    5.3868   -3.9681 H   0  0  0  0  0  0  0  0  0  0  0  0
   12.5284   10.2900   -3.2485 H   0  0  0  0  0  0  0  0  0  0  0  0
    9.6253    9.1765   -6.3928 H   0  0  0  0  0  0  0  0  0  0  0  0
   10.8673    8.9763   -7.6147 H   0  0  0  0  0  0  0  0  0  0  0  0
    9.8719    6.5799   -5.9484 H   0  0  0  0  0  0  0  0  0  0  0  0
   11.3847    6.4192   -6.6877 H   0  0  0  0  0  0  0  0  0  0  0  0
  1  2  1  0
  2  3  1  0
  3  4  2  0
  4  5  1  0
  5  6  2  0
  6  7  1  0
  6  8  1  0
  8  9  1  0
  9 10  1  0
  7  2  2  0
 10  5  1  0
  1 11  1  0
  3 12  1  0
  4 13  1  0
  7 14  1  0
  9 15  1  0
  9 16  1  0
 10 17  1  0
 10 18  1  0
M  END
>  <docking_score>  (31) 
-6.503

>  <plif_similarity>  (31) 
0.429

$$$$
Pocket2Mol_56
     RDKit          3D

 19 20  0  0  0  0  0  0  0  0999 V2000
   12.0400    6.7590   -2.5630 C   0  0  0  0  0  0  0  0  0  0  0  0
   12.4760    8.0020   -2.0950 C   0  0  0  0  0  0  0  0  0  0  0  0
   12.4530    9.0930   -2.8500 C   0  0  0  0  0  0  0  0  0  0  0  0
   12.1520    9.0090   -4.2120 C   0  0  0  0  0  0  0  0  0  0  0  0
   11.5880    7.7830   -4.5130 C   0  0  0  0  0  0  0  0  0  0  0  0
   11.5550    6.5440   -3.8980 C   0  0  0  0  0  0  0  0  0  0  0  0
   11.0960    7.6550   -5.9730 N   0  0  0  0  0  0  0  0  0  0  0  0
   10.5790    8.6830   -6.2700 C   0  0  0  0  0  0  0  0  0  0  0  0
   11.1520    9.5780   -6.1370 C   0  0  0  0  0  0  0  0  0  0  0  0
   11.9380    9.9430   -5.1180 O   0  0  0  0  0  0  0  0  0  0  0  0
   12.0698    5.9020   -1.8740 H   0  0  0  0  0  0  0  0  0  0  0  0
   12.8516    8.0784   -1.0639 H   0  0  0  0  0  0  0  0  0  0  0  0
   12.6728   10.0722   -2.3997 H   0  0  0  0  0  0  0  0  0  0  0  0
   11.2257    5.5919   -4.3397 H   0  0  0  0  0  0  0  0  0  0  0  0
   11.1960    6.8280   -6.5790 H   0  0  0  0  0  0  0  0  0  0  0  0
   10.3064    8.6204   -7.3339 H   0  0  0  0  0  0  0  0  0  0  0  0
    9.7325    8.7842   -5.5749 H   0  0  0  0  0  0  0  0  0  0  0  0
   11.8150    9.6077   -7.0142 H   0  0  0  0  0  0  0  0  0  0  0  0
   10.3152   10.2622   -5.9328 H   0  0  0  0  0  0  0  0  0  0  0  0
  1  2  2  0
  2  3  1  0
  3  4  2  0
  4  5  1  0
  5  6  2  0
  5  7  1  0
  7  8  1  0
  8  9  1  0
  9 10  1  0
  6  1  1  0
 10  4  1  0
  1 11  1  0
  2 12  1  0
  3 13  1  0
  6 14  1  0
  7 15  1  0
  8 16  1  0
  8 17  1  0
  9 18  1  0
  9 19  1  0
M  END
>  <docking_score>  (32) 
-6.291

>  <plif_similarity>  (32) 
0.429

$$$$
Pocket2Mol_57
     RDKit          3D

 18 19  0  0  0  0  0  0  0  0999 V2000
   11.9920    6.8180   -2.7580 C   0  0  0  0  0  0  0  0  0  0  0  0
   12.4610    8.0650   -2.3370 C   0  0  0  0  0  0  0  0  0  0  0  0
   12.5040    9.1240   -3.1260 C   0  0  0  0  0  0  0  0  0  0  0  0
   12.1010    9.0280   -4.4470 C   0  0  0  0  0  0  0  0  0  0  0  0
   11.5800    7.7830   -4.7450 C   0  0  0  0  0  0  0  0  0  0  0  0
   11.4960    6.5730   -4.0790 C   0  0  0  0  0  0  0  0  0  0  0  0
   11.0730    7.6130   -6.3050 C   0  0  0  0  0  0  0  0  0  0  0  0
   10.4360    8.6880   -6.4140 O   0  0  0  0  0  0  0  0  0  0  0  0
   11.2940    9.4950   -6.4870 C   0  0  0  0  0  0  0  0  0  0  0  0
   11.9710    9.9170   -5.4140 O   0  0  0  0  0  0  0  0  0  0  0  0
   12.0043    5.9844   -2.0404 H   0  0  0  0  0  0  0  0  0  0  0  0
   12.8110    8.1701   -1.2995 H   0  0  0  0  0  0  0  0  0  0  0  0
   12.8617   10.0865   -2.7314 H   0  0  0  0  0  0  0  0  0  0  0  0
   11.1246    5.6190   -4.4815 H   0  0  0  0  0  0  0  0  0  0  0  0
   11.9153    7.5575   -7.0104 H   0  0  0  0  0  0  0  0  0  0  0  0
   10.5041    6.6974   -6.5242 H   0  0  0  0  0  0  0  0  0  0  0  0
   12.0430    9.0841   -7.1799 H   0  0  0  0  0  0  0  0  0  0  0  0
   10.7339   10.3977   -6.7723 H   0  0  0  0  0  0  0  0  0  0  0  0
  1  2  2  0
  2  3  1  0
  3  4  2  0
  4  5  1  0
  5  6  2  0
  5  7  1  0
  7  8  1  0
  8  9  1  0
  9 10  1  0
  6  1  1  0
 10  4  1  0
  1 11  1  0
  2 12  1  0
  3 13  1  0
  6 14  1  0
  7 15  1  0
  7 16  1  0
  9 17  1  0
  9 18  1  0
M  END
>  <docking_score>  (33) 
-6.433

>  <plif_similarity>  (33) 
0.429

$$$$
Pocket2Mol_58
     RDKit          3D

 18 19  0  0  0  0  0  0  0  0999 V2000
   12.1970    7.1570   -2.3380 C   0  0  0  0  0  0  0  0  0  0  0  0
   11.6660    6.6100   -3.1410 C   0  0  0  0  0  0  0  0  0  0  0  0
   11.6560    7.4390   -4.5660 C   0  0  0  0  0  0  0  0  0  0  0  0
   11.2260    6.6200   -5.5960 C   0  0  0  0  0  0  0  0  0  0  0  0
   11.2150    7.4390   -6.7700 C   0  0  0  0  0  0  0  0  0  0  0  0
   11.5680    8.7910   -6.7620 C   0  0  0  0  0  0  0  0  0  0  0  0
   11.9270    9.4370   -5.6670 C   0  0  0  0  0  0  0  0  0  0  0  0
   11.9390    8.7870   -4.4440 C   0  0  0  0  0  0  0  0  0  0  0  0
   12.3160    9.1550   -3.2350 O   0  0  0  0  0  0  0  0  0  0  0  0
   12.4350    8.1610   -2.3480 C   0  0  0  0  0  0  0  0  0  0  0  0
   12.4973    6.5792   -1.4514 H   0  0  0  0  0  0  0  0  0  0  0  0
   11.1977    5.6242   -3.0034 H   0  0  0  0  0  0  0  0  0  0  0  0
   10.9495    5.5576   -5.5265 H   0  0  0  0  0  0  0  0  0  0  0  0
   10.9142    6.9821   -7.7243 H   0  0  0  0  0  0  0  0  0  0  0  0
   11.5459    9.3437   -7.7128 H   0  0  0  0  0  0  0  0  0  0  0  0
   12.2178   10.4962   -5.7268 H   0  0  0  0  0  0  0  0  0  0  0  0
   13.5137    8.1564   -2.1326 H   0  0  0  0  0  0  0  0  0  0  0  0
   11.5666    8.4684   -1.7468 H   0  0  0  0  0  0  0  0  0  0  0  0
  1  2  2  0
  2  3  1  0
  3  4  2  0
  4  5  1  0
  5  6  2  0
  6  7  1  0
  7  8  2  0
  8  9  1  0
  9 10  1  0
 10  1  1  0
  8  3  1  0
  1 11  1  0
  2 12  1  0
  4 13  1  0
  5 14  1  0
  6 15  1  0
  7 16  1  0
 10 17  1  0
 10 18  1  0
M  END
>  <docking_score>  (34) 
-6.943

>  <plif_similarity>  (34) 
0.286

$$$$
Pocket2Mol_59
     RDKit          3D

 17 18  0  0  0  0  0  0  0  0999 V2000
   10.7150    6.4950   -7.2910 O   0  0  0  0  0  0  0  0  0  0  0  0
   11.3140    7.1530   -6.2710 N   0  0  0  0  0  0  0  0  0  0  0  0
   11.3900    8.5010   -6.3370 C   0  0  0  0  0  0  0  0  0  0  0  0
   11.9040    9.2810   -5.2110 C   0  0  0  0  0  0  0  0  0  0  0  0
   12.0340    8.7490   -3.9670 C   0  0  0  0  0  0  0  0  0  0  0  0
   11.6660    7.4170   -4.0030 C   0  0  0  0  0  0  0  0  0  0  0  0
   11.1830    6.5620   -4.9790 C   0  0  0  0  0  0  0  0  0  0  0  0
   12.2300    6.9440   -2.4440 C   0  0  0  0  0  0  0  0  0  0  0  0
   12.4950    8.2270   -1.8350 C   0  0  0  0  0  0  0  0  0  0  0  0
   12.4370    9.1690   -2.7830 O   0  0  0  0  0  0  0  0  0  0  0  0
   11.0608    9.0187   -7.2500 H   0  0  0  0  0  0  0  0  0  0  0  0
   12.1939   10.3292   -5.3761 H   0  0  0  0  0  0  0  0  0  0  0  0
   10.7577    5.5662   -4.7854 H   0  0  0  0  0  0  0  0  0  0  0  0
   11.4603    6.3869   -1.8897 H   0  0  0  0  0  0  0  0  0  0  0  0
   13.0981    6.2688   -2.4658 H   0  0  0  0  0  0  0  0  0  0  0  0
   11.7408    8.4329   -1.0612 H   0  0  0  0  0  0  0  0  0  0  0  0
   13.4914    8.2234   -1.3690 H   0  0  0  0  0  0  0  0  0  0  0  0
  1  2  1  0
  2  3  2  0
  3  4  1  0
  4  5  2  0
  5  6  1  0
  6  7  2  0
  6  8  1  0
  8  9  1  0
  9 10  1  0
  7  2  1  0
 10  5  1  0
  3 11  1  0
  4 12  1  0
  7 13  1  0
  8 14  1  0
  8 15  1  0
  9 16  1  0
  9 17  1  0
M  CHG  2   1  -1   2   1
M  END
>  <docking_score>  (35) 
-5.944

>  <plif_similarity>  (35) 
0.286

$$$$
Pocket2Mol_60
     RDKit          3D

 19 20  0  0  0  0  0  0  0  0999 V2000
   13.1460    8.5950   -0.9750 O   0  0  0  0  0  0  0  0  0  0  0  0
   12.5770    8.2340   -2.2350 C   0  0  0  0  0  0  0  0  0  0  0  0
   12.2050    6.9510   -2.4650 C   0  0  0  0  0  0  0  0  0  0  0  0
   11.6410    6.5530   -3.7250 C   0  0  0  0  0  0  0  0  0  0  0  0
   11.4480    7.5370   -4.6000 C   0  0  0  0  0  0  0  0  0  0  0  0
   12.0640    8.8350   -4.4480 C   0  0  0  0  0  0  0  0  0  0  0  0
   12.4820    9.2030   -3.2020 C   0  0  0  0  0  0  0  0  0  0  0  0
   12.0620    9.4230   -5.4910 O   0  0  0  0  0  0  0  0  0  0  0  0
   10.9120    9.5820   -6.1560 C   0  0  0  0  0  0  0  0  0  0  0  0
   10.3020    8.3290   -6.4770 C   0  0  0  0  0  0  0  0  0  0  0  0
   11.0770    7.2810   -5.7780 O   0  0  0  0  0  0  0  0  0  0  0  0
   14.0640    8.9630   -0.9330 H   0  0  0  0  0  0  0  0  0  0  0  0
   12.3374    6.2003   -1.6719 H   0  0  0  0  0  0  0  0  0  0  0  0
   11.3863    5.5070   -3.9509 H   0  0  0  0  0  0  0  0  0  0  0  0
   12.7363   10.2496   -2.9786 H   0  0  0  0  0  0  0  0  0  0  0  0
   10.2186   10.1653   -5.5323 H   0  0  0  0  0  0  0  0  0  0  0  0
   11.1336   10.1038   -7.0987 H   0  0  0  0  0  0  0  0  0  0  0  0
    9.2569    8.3184   -6.1340 H   0  0  0  0  0  0  0  0  0  0  0  0
   10.3015    8.1588   -7.5638 H   0  0  0  0  0  0  0  0  0  0  0  0
  1  2  1  0
  2  3  1  0
  3  4  2  0
  4  5  1  0
  5  6  2  0
  6  7  1  0
  6  8  1  0
  8  9  1  0
  9 10  1  0
 10 11  1  0
  7  2  2  0
 11  5  1  0
  1 12  1  0
  3 13  1  0
  4 14  1  0
  7 15  1  0
  9 16  1  0
  9 17  1  0
 10 18  1  0
 10 19  1  0
M  END
>  <docking_score>  (36) 
-6.525

>  <plif_similarity>  (36) 
0.429

$$$$
Pocket2Mol_61
     RDKit          3D

 18 19  0  0  0  0  0  0  0  0999 V2000
   12.0980    9.5660   -1.5480 O   0  0  0  0  0  0  0  0  0  0  0  0
   12.8630    8.8170   -2.2410 N   0  0  0  0  0  0  0  0  0  0  0  0
   12.4140    8.2680   -3.4610 C   0  0  0  0  0  0  0  0  0  0  0  0
   11.7190    6.9350   -3.5050 C   0  0  0  0  0  0  0  0  0  0  0  0
   11.3160    6.5150   -4.6650 C   0  0  0  0  0  0  0  0  0  0  0  0
   11.0760    7.1770   -5.7840 C   0  0  0  0  0  0  0  0  0  0  0  0
   10.6140    6.9480   -6.9980 O   0  0  0  0  0  0  0  0  0  0  0  0
   10.6940    7.9820   -7.8420 C   0  0  0  0  0  0  0  0  0  0  0  0
   11.4400    8.9720   -7.1290 C   0  0  0  0  0  0  0  0  0  0  0  0
   11.4940    8.4780   -5.5700 C   0  0  0  0  0  0  0  0  0  0  0  0
   12.0200    9.1710   -4.4940 C   0  0  0  0  0  0  0  0  0  0  0  0
   12.5870   10.3870   -1.2880 H   0  0  0  0  0  0  0  0  0  0  0  0
   13.8150    8.6120   -1.9070 H   0  0  0  0  0  0  0  0  0  0  0  0
   11.5591    6.3413   -2.5929 H   0  0  0  0  0  0  0  0  0  0  0  0
   11.1462    5.4300   -4.7274 H   0  0  0  0  0  0  0  0  0  0  0  0
   10.2787    8.0548   -8.8580 H   0  0  0  0  0  0  0  0  0  0  0  0
   11.8890    9.8854   -7.5463 H   0  0  0  0  0  0  0  0  0  0  0  0
   12.1205   10.2652   -4.4419 H   0  0  0  0  0  0  0  0  0  0  0  0
  1  2  1  0
  2  3  1  0
  3  4  2  0
  4  5  1  0
  5  6  2  0
  6  7  1  0
  7  8  1  0
  8  9  2  0
  9 10  1  0
 10 11  2  0
 11  3  1  0
 10  6  1  0
  1 12  1  0
  2 13  1  0
  4 14  1  0
  5 15  1  0
  8 16  1  0
  9 17  1  0
 11 18  1  0
M  END
>  <docking_score>  (37) 
-6.608

>  <plif_similarity>  (37) 
0.286

$$$$
Pocket2Mol_62
     RDKit          3D

 21 22  0  0  0  0  0  0  0  0999 V2000
    9.5000    6.3920   -7.5880 C   0  0  0  0  0  0  0  0  0  0  0  0
   10.8680    6.5420   -7.3840 O   0  0  0  0  0  0  0  0  0  0  0  0
   11.2830    7.2120   -6.2290 C   0  0  0  0  0  0  0  0  0  0  0  0
   11.5060    8.5950   -6.1810 C   0  0  0  0  0  0  0  0  0  0  0  0
   11.8850    9.3390   -5.0380 C   0  0  0  0  0  0  0  0  0  0  0  0
   12.0310    8.6690   -3.8430 C   0  0  0  0  0  0  0  0  0  0  0  0
   11.6670    7.3390   -3.9550 C   0  0  0  0  0  0  0  0  0  0  0  0
   11.1740    6.5440   -4.9730 C   0  0  0  0  0  0  0  0  0  0  0  0
   12.3610    6.8710   -2.4840 C   0  0  0  0  0  0  0  0  0  0  0  0
   12.5260    8.0220   -1.7530 C   0  0  0  0  0  0  0  0  0  0  0  0
   12.4500    9.0190   -2.6420 O   0  0  0  0  0  0  0  0  0  0  0  0
    8.9883    6.3359   -6.6159 H   0  0  0  0  0  0  0  0  0  0  0  0
    9.1171    7.2535   -8.1547 H   0  0  0  0  0  0  0  0  0  0  0  0
    9.3129    5.4680   -8.1547 H   0  0  0  0  0  0  0  0  0  0  0  0
   11.3742    9.1543   -7.1190 H   0  0  0  0  0  0  0  0  0  0  0  0
   12.0584   10.4234   -5.1021 H   0  0  0  0  0  0  0  0  0  0  0  0
   10.7557    5.5362   -4.8339 H   0  0  0  0  0  0  0  0  0  0  0  0
   11.6953    6.1746   -1.9531 H   0  0  0  0  0  0  0  0  0  0  0  0
   13.3199    6.3552   -2.6401 H   0  0  0  0  0  0  0  0  0  0  0  0
   11.7308    8.1168   -0.9989 H   0  0  0  0  0  0  0  0  0  0  0  0
   13.4824    8.0291   -1.2097 H   0  0  0  0  0  0  0  0  0  0  0  0
  1  2  1  0
  2  3  1  0
  3  4  1  0
  4  5  2  0
  5  6  1  0
  6  7  2  0
  7  8  1  0
  7  9  1  0
  9 10  1  0
 10 11  1  0
  8  3  2  0
 11  6  1  0
  1 12  1  0
  1 13  1  0
  1 14  1  0
  4 15  1  0
  5 16  1  0
  8 17  1  0
  9 18  1  0
  9 19  1  0
 10 20  1  0
 10 21  1  0
M  END
>  <docking_score>  (38) 
-6.532

>  <plif_similarity>  (38) 
0.286

$$$$
Pocket2Mol_63
     RDKit          3D

 19 20  0  0  0  0  0  0  0  0999 V2000
    9.4140    6.2210   -7.6410 C   0  0  0  0  0  0  0  0  0  0  0  0
   10.7740    6.5360   -7.5810 O   0  0  0  0  0  0  0  0  0  0  0  0
   11.2080    7.2240   -6.4440 C   0  0  0  0  0  0  0  0  0  0  0  0
   11.5840    8.5960   -6.4820 C   0  0  0  0  0  0  0  0  0  0  0  0
   12.0170    9.3110   -5.3100 C   0  0  0  0  0  0  0  0  0  0  0  0
   11.9930    8.7130   -4.0900 C   0  0  0  0  0  0  0  0  0  0  0  0
   12.4410    9.0800   -2.9040 O   0  0  0  0  0  0  0  0  0  0  0  0
   12.5730    8.0900   -2.0150 C   0  0  0  0  0  0  0  0  0  0  0  0
   12.0160    6.9060   -2.6300 C   0  0  0  0  0  0  0  0  0  0  0  0
   11.6630    7.3740   -4.1840 C   0  0  0  0  0  0  0  0  0  0  0  0
   11.1580    6.5590   -5.1820 C   0  0  0  0  0  0  0  0  0  0  0  0
    9.0137    6.1283   -6.6206 H   0  0  0  0  0  0  0  0  0  0  0  0
    8.8761    7.0183   -8.1748 H   0  0  0  0  0  0  0  0  0  0  0  0
    9.2815    5.2684   -8.1748 H   0  0  0  0  0  0  0  0  0  0  0  0
   11.5422    9.1301   -7.4427 H   0  0  0  0  0  0  0  0  0  0  0  0
   12.3698   10.3488   -5.4027 H   0  0  0  0  0  0  0  0  0  0  0  0
   13.0183    8.1623   -1.0118 H   0  0  0  0  0  0  0  0  0  0  0  0
   11.8610    5.9180   -2.1720 H   0  0  0  0  0  0  0  0  0  0  0  0
   10.7720    5.5410   -5.0247 H   0  0  0  0  0  0  0  0  0  0  0  0
  1  2  1  0
  2  3  1  0
  3  4  2  0
  4  5  1  0
  5  6  2  0
  6  7  1  0
  7  8  1  0
  8  9  2  0
  9 10  1  0
 10 11  2  0
 11  3  1  0
 10  6  1  0
  1 12  1  0
  1 13  1  0
  1 14  1  0
  4 15  1  0
  5 16  1  0
  8 17  1  0
  9 18  1  0
 11 19  1  0
M  END
>  <docking_score>  (39) 
-6.507

>  <plif_similarity>  (39) 
0.286

$$$$
Pocket2Mol_64
     RDKit          3D

 16 17  0  0  0  0  0  0  0  0999 V2000
   12.3530   10.4680   -6.0290 F   0  0  0  0  0  0  0  0  0  0  0  0
   11.9190    9.2670   -5.7730 C   0  0  0  0  0  0  0  0  0  0  0  0
   11.2500    8.5560   -6.6630 C   0  0  0  0  0  0  0  0  0  0  0  0
   10.6870    7.2930   -6.4690 C   0  0  0  0  0  0  0  0  0  0  0  0
   10.9270    6.5610   -5.4310 C   0  0  0  0  0  0  0  0  0  0  0  0
   11.5990    7.1530   -4.3750 C   0  0  0  0  0  0  0  0  0  0  0  0
   11.9520    8.4610   -4.6500 C   0  0  0  0  0  0  0  0  0  0  0  0
   12.6930    9.2090   -3.5130 O   0  0  0  0  0  0  0  0  0  0  0  0
   12.3490    8.7370   -2.3600 C   0  0  0  0  0  0  0  0  0  0  0  0
   12.2800    7.7420   -2.3210 C   0  0  0  0  0  0  0  0  0  0  0  0
   11.8220    6.7800   -3.1300 O   0  0  0  0  0  0  0  0  0  0  0  0
   11.1235    9.0050   -7.6592 H   0  0  0  0  0  0  0  0  0  0  0  0
   10.0050    6.9013   -7.2381 H   0  0  0  0  0  0  0  0  0  0  0  0
   10.6097    5.5086   -5.3883 H   0  0  0  0  0  0  0  0  0  0  0  0
   12.1482    9.3806   -1.4908 H   0  0  0  0  0  0  0  0  0  0  0  0
   12.6794    7.3360   -1.3799 H   0  0  0  0  0  0  0  0  0  0  0  0
  1  2  1  0
  2  3  1  0
  3  4  2  0
  4  5  1  0
  5  6  2  0
  6  7  1  0
  7  8  1  0
  8  9  1  0
  9 10  2  0
 10 11  1  0
  7  2  2  0
 11  6  1  0
  3 12  1  0
  4 13  1  0
  5 14  1  0
  9 15  1  0
 10 16  1  0
M  END
>  <docking_score>  (40) 
-6.337

>  <plif_similarity>  (40) 
0.286

$$$$
Pocket2Mol_65
     RDKit          3D

 18 19  0  0  0  0  0  0  0  0999 V2000
   12.9740    8.2860   -1.2100 F   0  0  0  0  0  0  0  0  0  0  0  0
   12.5490    8.0350   -2.5060 C   0  0  0  0  0  0  0  0  0  0  0  0
   11.8960    6.8440   -2.7890 C   0  0  0  0  0  0  0  0  0  0  0  0
   11.4780    6.6050   -4.1970 C   0  0  0  0  0  0  0  0  0  0  0  0
   11.3350    7.7260   -4.9000 C   0  0  0  0  0  0  0  0  0  0  0  0
   12.1700    8.7330   -4.6270 C   0  0  0  0  0  0  0  0  0  0  0  0
   12.7200    9.0750   -3.5080 C   0  0  0  0  0  0  0  0  0  0  0  0
   12.4740    9.6580   -5.6650 O   0  0  0  0  0  0  0  0  0  0  0  0
   12.2220    9.0620   -7.0230 C   0  0  0  0  0  0  0  0  0  0  0  0
   11.5410    7.8800   -7.0760 C   0  0  0  0  0  0  0  0  0  0  0  0
   10.8390    7.5760   -5.9790 O   0  0  0  0  0  0  0  0  0  0  0  0
   11.6946    6.1033   -2.0011 H   0  0  0  0  0  0  0  0  0  0  0  0
   11.3046    5.6024   -4.6149 H   0  0  0  0  0  0  0  0  0  0  0  0
   13.2468   10.0254   -3.3368 H   0  0  0  0  0  0  0  0  0  0  0  0
   11.6490    9.7988   -7.6050 H   0  0  0  0  0  0  0  0  0  0  0  0
   13.2222    8.8271   -7.4159 H   0  0  0  0  0  0  0  0  0  0  0  0
   10.8424    7.9279   -7.9243 H   0  0  0  0  0  0  0  0  0  0  0  0
   12.3034    7.0936   -7.1773 H   0  0  0  0  0  0  0  0  0  0  0  0
  1  2  1  0
  2  3  1  0
  3  4  2  0
  4  5  1  0
  5  6  2  0
  6  7  1  0
  6  8  1  0
  8  9  1  0
  9 10  1  0
 10 11  1  0
  7  2  2  0
 11  5  1  0
  3 12  1  0
  4 13  1  0
  7 14  1  0
  9 15  1  0
  9 16  1  0
 10 17  1  0
 10 18  1  0
M  END
>  <docking_score>  (41) 
-6.734

>  <plif_similarity>  (41) 
0.429

$$$$
Pocket2Mol_67
     RDKit          3D

 21 22  0  0  0  0  0  0  0  0999 V2000
   12.8640    8.1730   -1.1820 C   0  0  0  0  0  0  0  0  0  0  0  0
   12.4590    8.0260   -2.5100 C   0  0  0  0  0  0  0  0  0  0  0  0
   11.8840    6.7910   -2.9380 C   0  0  0  0  0  0  0  0  0  0  0  0
   11.3840    6.5770   -4.2470 C   0  0  0  0  0  0  0  0  0  0  0  0
   11.4830    7.6780   -5.0570 C   0  0  0  0  0  0  0  0  0  0  0  0
   12.2300    8.8670   -4.7120 C   0  0  0  0  0  0  0  0  0  0  0  0
   12.5680    9.1470   -3.4420 C   0  0  0  0  0  0  0  0  0  0  0  0
   12.4380    9.5270   -5.6900 O   0  0  0  0  0  0  0  0  0  0  0  0
   11.4140    9.8890   -6.4710 C   0  0  0  0  0  0  0  0  0  0  0  0
   10.7010    8.7580   -6.9760 C   0  0  0  0  0  0  0  0  0  0  0  0
   11.2410    7.5650   -6.2880 O   0  0  0  0  0  0  0  0  0  0  0  0
   12.0431    7.8750   -0.5132 H   0  0  0  0  0  0  0  0  0  0  0  0
   13.7404    7.5356   -0.9933 H   0  0  0  0  0  0  0  0  0  0  0  0
   13.1276    9.2241   -0.9933 H   0  0  0  0  0  0  0  0  0  0  0  0
   11.8261    5.9638   -2.2153 H   0  0  0  0  0  0  0  0  0  0  0  0
   10.9576    5.6194   -4.5805 H   0  0  0  0  0  0  0  0  0  0  0  0
   12.9022   10.1465   -3.1267 H   0  0  0  0  0  0  0  0  0  0  0  0
   10.7227   10.5119   -5.8844 H   0  0  0  0  0  0  0  0  0  0  0  0
   11.8203   10.4455   -7.3284 H   0  0  0  0  0  0  0  0  0  0  0  0
    9.6268    8.8628   -6.7637 H   0  0  0  0  0  0  0  0  0  0  0  0
   10.8223    8.6716   -8.0659 H   0  0  0  0  0  0  0  0  0  0  0  0
  1  2  1  0
  2  3  1  0
  3  4  2  0
  4  5  1  0
  5  6  2  0
  6  7  1  0
  6  8  1  0
  8  9  1  0
  9 10  1  0
 10 11  1  0
  7  2  2  0
 11  5  1  0
  1 12  1  0
  1 13  1  0
  1 14  1  0
  3 15  1  0
  4 16  1  0
  7 17  1  0
  9 18  1  0
  9 19  1  0
 10 20  1  0
 10 21  1  0
M  END
>  <docking_score>  (42) 
-6.908

>  <plif_similarity>  (42) 
0.429

$$$$
Pocket2Mol_68
     RDKit          3D

 19 20  0  0  0  0  0  0  0  0999 V2000
   12.0440    9.9550   -2.3540 O   0  0  0  0  0  0  0  0  0  0  0  0
   11.8430    8.8980   -3.2050 C   0  0  0  0  0  0  0  0  0  0  0  0
   11.8390    7.5640   -2.6990 C   0  0  0  0  0  0  0  0  0  0  0  0
   11.6630    6.4960   -3.5500 C   0  0  0  0  0  0  0  0  0  0  0  0
   11.3960    6.6670   -4.8840 C   0  0  0  0  0  0  0  0  0  0  0  0
   11.2550    7.9380   -5.3590 C   0  0  0  0  0  0  0  0  0  0  0  0
   11.7020    9.0280   -4.5210 C   0  0  0  0  0  0  0  0  0  0  0  0
   11.5510   10.1670   -5.0390 O   0  0  0  0  0  0  0  0  0  0  0  0
   12.0160   10.3340   -6.4330 C   0  0  0  0  0  0  0  0  0  0  0  0
   11.6410    9.1510   -7.1430 C   0  0  0  0  0  0  0  0  0  0  0  0
   10.8560    8.3550   -6.4080 O   0  0  0  0  0  0  0  0  0  0  0  0
   11.6230   10.8310   -2.5440 H   0  0  0  0  0  0  0  0  0  0  0  0
   11.9774    7.3876   -1.6221 H   0  0  0  0  0  0  0  0  0  0  0  0
   11.7389    5.4750   -3.1476 H   0  0  0  0  0  0  0  0  0  0  0  0
   11.2979    5.8006   -5.5547 H   0  0  0  0  0  0  0  0  0  0  0  0
   11.5388   11.2147   -6.8875 H   0  0  0  0  0  0  0  0  0  0  0  0
   13.1051   10.4845   -6.4683 H   0  0  0  0  0  0  0  0  0  0  0  0
   11.0990    9.4407   -8.0553 H   0  0  0  0  0  0  0  0  0  0  0  0
   12.5582    8.5945   -7.3861 H   0  0  0  0  0  0  0  0  0  0  0  0
  1  2  1  0
  2  3  1  0
  3  4  2  0
  4  5  1  0
  5  6  2  0
  6  7  1  0
  7  8  1  0
  8  9  1  0
  9 10  1  0
 10 11  1  0
  7  2  2  0
 11  6  1  0
  1 12  1  0
  3 13  1  0
  4 14  1  0
  5 15  1  0
  9 16  1  0
  9 17  1  0
 10 18  1  0
 10 19  1  0
M  END
>  <docking_score>  (43) 
-6.248

>  <plif_similarity>  (43) 
0.286

$$$$
Pocket2Mol_69
     RDKit          3D

 18 19  0  0  0  0  0  0  0  0999 V2000
   11.6610    9.3950   -7.9000 F   0  0  0  0  0  0  0  0  0  0  0  0
   11.6570    8.7460   -6.6320 C   0  0  0  0  0  0  0  0  0  0  0  0
   11.1830    7.4340   -6.6920 C   0  0  0  0  0  0  0  0  0  0  0  0
   11.1880    6.6600   -5.3600 C   0  0  0  0  0  0  0  0  0  0  0  0
   11.6780    7.4980   -4.3740 C   0  0  0  0  0  0  0  0  0  0  0  0
   12.0480    8.8290   -4.3190 C   0  0  0  0  0  0  0  0  0  0  0  0
   12.0660    9.4190   -5.5720 C   0  0  0  0  0  0  0  0  0  0  0  0
   12.4590    9.2300   -3.1310 O   0  0  0  0  0  0  0  0  0  0  0  0
   12.5220    8.2740   -2.1980 C   0  0  0  0  0  0  0  0  0  0  0  0
   12.3470    7.1820   -2.2590 C   0  0  0  0  0  0  0  0  0  0  0  0
   11.6480    6.7400   -2.9110 C   0  0  0  0  0  0  0  0  0  0  0  0
   10.8287    6.9820   -7.6302 H   0  0  0  0  0  0  0  0  0  0  0  0
   10.8587    5.6202   -5.2173 H   0  0  0  0  0  0  0  0  0  0  0  0
   12.4228   10.4534   -5.6847 H   0  0  0  0  0  0  0  0  0  0  0  0
   13.5480    8.3539   -1.8095 H   0  0  0  0  0  0  0  0  0  0  0  0
   11.5842    8.5297   -1.6830 H   0  0  0  0  0  0  0  0  0  0  0  0
   12.9352    6.5235   -1.6030 H   0  0  0  0  0  0  0  0  0  0  0  0
   10.9929    5.8949   -2.6529 H   0  0  0  0  0  0  0  0  0  0  0  0
  1  2  1  0
  2  3  1  0
  3  4  2  0
  4  5  1  0
  5  6  2  0
  6  7  1  0
  6  8  1  0
  8  9  1  0
  9 10  1  0
 10 11  2  0
  7  2  2  0
 11  5  1  0
  3 12  1  0
  4 13  1  0
  7 14  1  0
  9 15  1  0
  9 16  1  0
 10 17  1  0
 11 18  1  0
M  END
>  <docking_score>  (44) 
-7.452

>  <plif_similarity>  (44) 
0.286

$$$$
Pocket2Mol_70
     RDKit          3D

 20 21  0  0  0  0  0  0  0  0999 V2000
   12.8880    8.2520   -0.9410 F   0  0  0  0  0  0  0  0  0  0  0  0
   12.4410    8.0770   -2.2820 C   0  0  0  0  0  0  0  0  0  0  0  0
   11.9950    6.7940   -2.6500 C   0  0  0  0  0  0  0  0  0  0  0  0
   11.5020    6.5200   -3.9800 C   0  0  0  0  0  0  0  0  0  0  0  0
   11.5660    7.7110   -4.6820 C   0  0  0  0  0  0  0  0  0  0  0  0
   12.0670    8.9730   -4.4200 C   0  0  0  0  0  0  0  0  0  0  0  0
   12.4670    9.1130   -3.1020 C   0  0  0  0  0  0  0  0  0  0  0  0
   11.9230    9.8310   -5.4120 O   0  0  0  0  0  0  0  0  0  0  0  0
   11.2540    9.3670   -6.4720 C   0  0  0  0  0  0  0  0  0  0  0  0
   10.1880    8.5380   -6.5450 C   0  0  0  0  0  0  0  0  0  0  0  0
   11.0640    7.4870   -6.2360 C   0  0  0  0  0  0  0  0  0  0  0  0
   12.0224    5.9819   -1.9086 H   0  0  0  0  0  0  0  0  0  0  0  0
   11.1448    5.5519   -4.3611 H   0  0  0  0  0  0  0  0  0  0  0  0
   12.8084   10.0922   -2.7352 H   0  0  0  0  0  0  0  0  0  0  0  0
   10.9199   10.2758   -6.9939 H   0  0  0  0  0  0  0  0  0  0  0  0
   12.0134    8.6474   -6.8118 H   0  0  0  0  0  0  0  0  0  0  0  0
    9.4096    8.7237   -5.7903 H   0  0  0  0  0  0  0  0  0  0  0  0
    9.5372    8.5080   -7.4313 H   0  0  0  0  0  0  0  0  0  0  0  0
   10.5429    6.5227   -6.3283 H   0  0  0  0  0  0  0  0  0  0  0  0
   11.9210    7.4778   -6.9255 H   0  0  0  0  0  0  0  0  0  0  0  0
  1  2  1  0
  2  3  1  0
  3  4  2  0
  4  5  1  0
  5  6  2  0
  6  7  1  0
  6  8  1  0
  8  9  1  0
  9 10  1  0
 10 11  1  0
  7  2  2  0
 11  5  1  0
  3 12  1  0
  4 13  1  0
  7 14  1  0
  9 15  1  0
  9 16  1  0
 10 17  1  0
 10 18  1  0
 11 19  1  0
 11 20  1  0
M  END
>  <docking_score>  (45) 
-7.272

>  <plif_similarity>  (45) 
0.429

$$$$
Pocket2Mol_71
     RDKit          3D

 17 18  0  0  0  0  0  0  0  0999 V2000
   13.0750    8.1840   -0.8670 F   0  0  0  0  0  0  0  0  0  0  0  0
   12.5400    8.0840   -2.1710 C   0  0  0  0  0  0  0  0  0  0  0  0
   12.1690    6.7800   -2.5870 C   0  0  0  0  0  0  0  0  0  0  0  0
   11.6000    6.5590   -3.9070 C   0  0  0  0  0  0  0  0  0  0  0  0
   11.5340    7.7900   -4.5350 C   0  0  0  0  0  0  0  0  0  0  0  0
   12.0490    9.0470   -4.2760 C   0  0  0  0  0  0  0  0  0  0  0  0
   12.4190    9.1630   -2.9330 C   0  0  0  0  0  0  0  0  0  0  0  0
   11.7370    9.9580   -5.1780 O   0  0  0  0  0  0  0  0  0  0  0  0
   10.9170    9.5400   -6.1480 C   0  0  0  0  0  0  0  0  0  0  0  0
   10.5240    8.6700   -6.4950 C   0  0  0  0  0  0  0  0  0  0  0  0
   10.9710    7.6200   -5.9630 N   0  0  0  0  0  0  0  0  0  0  0  0
   12.3128    5.9286   -1.9056 H   0  0  0  0  0  0  0  0  0  0  0  0
   11.2816    5.5937   -4.3275 H   0  0  0  0  0  0  0  0  0  0  0  0
   12.6115   10.1576   -2.5044 H   0  0  0  0  0  0  0  0  0  0  0  0
   10.0105   10.1284   -5.9430 H   0  0  0  0  0  0  0  0  0  0  0  0
   11.7129    9.5520   -6.9072 H   0  0  0  0  0  0  0  0  0  0  0  0
    9.7579    8.6467   -7.2840 H   0  0  0  0  0  0  0  0  0  0  0  0
  1  2  1  0
  2  3  1  0
  3  4  2  0
  4  5  1  0
  5  6  2  0
  6  7  1  0
  6  8  1  0
  8  9  1  0
  9 10  1  0
 10 11  2  0
  7  2  2  0
 11  5  1  0
  3 12  1  0
  4 13  1  0
  7 14  1  0
  9 15  1  0
  9 16  1  0
 10 17  1  0
M  END
>  <docking_score>  (46) 
-6.808

>  <plif_similarity>  (46) 
0.429

$$$$
Pocket2Mol_73
     RDKit          3D

 20 21  0  0  0  0  0  0  0  0999 V2000
   12.4230    9.2010   -1.1110 O   0  0  0  0  0  0  0  0  0  0  0  0
   12.5880    8.1670   -1.7340 N   0  0  0  0  0  0  0  0  0  0  0  0
   12.2150    7.9890   -3.1310 C   0  0  0  0  0  0  0  0  0  0  0  0
   11.6510    6.8220   -3.5600 C   0  0  0  0  0  0  0  0  0  0  0  0
   11.2760    6.6480   -4.9770 C   0  0  0  0  0  0  0  0  0  0  0  0
   11.2920    7.7170   -5.7340 C   0  0  0  0  0  0  0  0  0  0  0  0
   11.9320    8.8180   -5.1950 C   0  0  0  0  0  0  0  0  0  0  0  0
   12.3880    9.1630   -3.9350 C   0  0  0  0  0  0  0  0  0  0  0  0
   12.1040    9.6950   -6.4650 C   0  0  0  0  0  0  0  0  0  0  0  0
   11.4730    8.9350   -7.6080 C   0  0  0  0  0  0  0  0  0  0  0  0
   11.0210    7.8220   -7.0210 O   0  0  0  0  0  0  0  0  0  0  0  0
   11.6030    9.1270   -0.5620 H   0  0  0  0  0  0  0  0  0  0  0  0
   13.0160    7.3690   -1.2440 H   0  0  0  0  0  0  0  0  0  0  0  0
   11.4747    6.0054   -2.8444 H   0  0  0  0  0  0  0  0  0  0  0  0
   10.9953    5.6636   -5.3798 H   0  0  0  0  0  0  0  0  0  0  0  0
   12.7970   10.1335   -3.6173 H   0  0  0  0  0  0  0  0  0  0  0  0
   11.5986   10.6625   -6.3286 H   0  0  0  0  0  0  0  0  0  0  0  0
   13.1667    9.8976   -6.6642 H   0  0  0  0  0  0  0  0  0  0  0  0
   10.6476    9.5084   -8.0552 H   0  0  0  0  0  0  0  0  0  0  0  0
   12.1735    8.7346   -8.4321 H   0  0  0  0  0  0  0  0  0  0  0  0
  1  2  1  0
  2  3  1  0
  3  4  1  0
  4  5  2  0
  5  6  1  0
  6  7  2  0
  7  8  1  0
  7  9  1  0
  9 10  1  0
 10 11  1  0
  8  3  2  0
 11  6  1  0
  1 12  1  0
  2 13  1  0
  4 14  1  0
  5 15  1  0
  8 16  1  0
  9 17  1  0
  9 18  1  0
 10 19  1  0
 10 20  1  0
M  END
>  <docking_score>  (47) 
-6.568

>  <plif_similarity>  (47) 
0.429

$$$$
Pocket2Mol_74
     RDKit          3D

 20 21  0  0  0  0  0  0  0  0999 V2000
   10.5310    6.3150   -6.3100 O   0  0  0  0  0  0  0  0  0  0  0  0
   10.9760    7.4420   -6.0070 C   0  0  0  0  0  0  0  0  0  0  0  0
   10.6300    8.6580   -6.4890 O   0  0  0  0  0  0  0  0  0  0  0  0
   11.5050    9.5030   -7.0450 C   0  0  0  0  0  0  0  0  0  0  0  0
   12.4660    9.9140   -6.1140 C   0  0  0  0  0  0  0  0  0  0  0  0
   11.7230    9.9740   -4.8290 O   0  0  0  0  0  0  0  0  0  0  0  0
   11.9840    8.8900   -3.9580 C   0  0  0  0  0  0  0  0  0  0  0  0
   12.4440    9.0660   -2.8360 C   0  0  0  0  0  0  0  0  0  0  0  0
   12.5120    7.9110   -2.0130 C   0  0  0  0  0  0  0  0  0  0  0  0
   12.1030    6.6870   -2.4910 C   0  0  0  0  0  0  0  0  0  0  0  0
   11.6170    6.6050   -3.7050 C   0  0  0  0  0  0  0  0  0  0  0  0
   11.6390    7.6010   -4.5640 C   0  0  0  0  0  0  0  0  0  0  0  0
   12.0085    8.9994   -7.8833 H   0  0  0  0  0  0  0  0  0  0  0  0
   10.9591   10.3896   -7.4000 H   0  0  0  0  0  0  0  0  0  0  0  0
   13.2892    9.1867   -6.0555 H   0  0  0  0  0  0  0  0  0  0  0  0
   12.9274   10.8764   -6.3803 H   0  0  0  0  0  0  0  0  0  0  0  0
   12.7820   10.0537   -2.4892 H   0  0  0  0  0  0  0  0  0  0  0  0
   12.8946    7.9952   -0.9851 H   0  0  0  0  0  0  0  0  0  0  0  0
   12.1831    5.7885   -1.8615 H   0  0  0  0  0  0  0  0  0  0  0  0
   11.1668    5.6530   -4.0227 H   0  0  0  0  0  0  0  0  0  0  0  0
  1  2  2  0
  2  3  1  0
  3  4  1  0
  4  5  1  0
  5  6  1  0
  6  7  1  0
  7  8  2  0
  8  9  1  0
  9 10  2  0
 10 11  1  0
 11 12  2  0
 12  2  1  0
 12  7  1  0
  4 13  1  0
  4 14  1  0
  5 15  1  0
  5 16  1  0
  8 17  1  0
  9 18  1  0
 10 19  1  0
 11 20  1  0
M  END
>  <docking_score>  (48) 
-7.402

>  <plif_similarity>  (48) 
0.429

$$$$
Pocket2Mol_75
     RDKit          3D

 17 18  0  0  0  0  0  0  0  0999 V2000
   10.1540    5.8310   -7.7240 O   0  0  0  0  0  0  0  0  0  0  0  0
   10.7050    6.8540   -7.7250 N   0  0  0  0  0  0  0  0  0  0  0  0
   10.9560    7.3620   -8.8340 O   0  0  0  0  0  0  0  0  0  0  0  0
   11.2480    7.3900   -6.5450 C   0  0  0  0  0  0  0  0  0  0  0  0
   11.7150    8.7930   -6.4180 C   0  0  0  0  0  0  0  0  0  0  0  0
   12.0830    9.3680   -5.2490 C   0  0  0  0  0  0  0  0  0  0  0  0
   12.0430    8.6620   -4.0700 C   0  0  0  0  0  0  0  0  0  0  0  0
   12.4750    8.9190   -2.8500 O   0  0  0  0  0  0  0  0  0  0  0  0
   12.5290    7.8620   -2.0320 C   0  0  0  0  0  0  0  0  0  0  0  0
   12.0270    6.7270   -2.7450 C   0  0  0  0  0  0  0  0  0  0  0  0
   11.6450    7.3530   -4.2690 C   0  0  0  0  0  0  0  0  0  0  0  0
   11.1270    6.6410   -5.3360 C   0  0  0  0  0  0  0  0  0  0  0  0
   11.7653    9.4041   -7.3312 H   0  0  0  0  0  0  0  0  0  0  0  0
   12.4189   10.4154   -5.2424 H   0  0  0  0  0  0  0  0  0  0  0  0
   12.8946    7.8646   -0.9946 H   0  0  0  0  0  0  0  0  0  0  0  0
   11.9160    5.6929   -2.3868 H   0  0  0  0  0  0  0  0  0  0  0  0
   10.6835    5.6370   -5.2629 H   0  0  0  0  0  0  0  0  0  0  0  0
  1  2  2  0
  2  3  1  0
  2  4  1  0
  4  5  2  0
  5  6  1  0
  6  7  2  0
  7  8  1  0
  8  9  1  0
  9 10  2  0
 10 11  1  0
 11 12  2  0
 12  4  1  0
 11  7  1  0
  5 13  1  0
  6 14  1  0
  9 15  1  0
 10 16  1  0
 12 17  1  0
M  CHG  2   2   1   3  -1
M  END
>  <docking_score>  (49) 
-6.836

>  <plif_similarity>  (49) 
0.286

$$$$
Pocket2Mol_79
     RDKit          3D

 24 25  0  0  0  0  0  0  0  0999 V2000
   12.1250   10.4410   -6.4820 C   0  0  0  0  0  0  0  0  0  0  0  0
   11.6880    9.1010   -6.1700 C   0  0  0  0  0  0  0  0  0  0  0  0
   10.7710    8.4350   -7.1080 C   0  0  0  0  0  0  0  0  0  0  0  0
   10.4320    7.1820   -6.8460 C   0  0  0  0  0  0  0  0  0  0  0  0
   10.7370    6.5700   -5.6710 C   0  0  0  0  0  0  0  0  0  0  0  0
   11.5400    7.1940   -4.7800 C   0  0  0  0  0  0  0  0  0  0  0  0
   11.8970    8.5560   -5.0920 C   0  0  0  0  0  0  0  0  0  0  0  0
   12.7340    9.1430   -4.1160 O   0  0  0  0  0  0  0  0  0  0  0  0
   12.0610    9.4120   -2.8190 C   0  0  0  0  0  0  0  0  0  0  0  0
   12.5260    8.3960   -1.9760 C   0  0  0  0  0  0  0  0  0  0  0  0
   12.7160    7.2600   -2.6540 O   0  0  0  0  0  0  0  0  0  0  0  0
   11.7140    6.5790   -3.2570 C   0  0  0  0  0  0  0  0  0  0  0  0
   12.3055   10.9945   -5.5487 H   0  0  0  0  0  0  0  0  0  0  0  0
   13.0551   10.3963   -7.0675 H   0  0  0  0  0  0  0  0  0  0  0  0
   11.3474   10.9533   -7.0675 H   0  0  0  0  0  0  0  0  0  0  0  0
   10.3816    8.9582   -7.9938 H   0  0  0  0  0  0  0  0  0  0  0  0
    9.8814    6.6134   -7.6099 H   0  0  0  0  0  0  0  0  0  0  0  0
   10.3325    5.5721   -5.4463 H   0  0  0  0  0  0  0  0  0  0  0  0
   12.3433   10.4016   -2.4304 H   0  0  0  0  0  0  0  0  0  0  0  0
   10.9645    9.4197   -2.9059 H   0  0  0  0  0  0  0  0  0  0  0  0
   13.4794    8.7101   -1.5262 H   0  0  0  0  0  0  0  0  0  0  0  0
   11.7721    8.2161   -1.1954 H   0  0  0  0  0  0  0  0  0  0  0  0
   11.9661    5.5096   -3.3106 H   0  0  0  0  0  0  0  0  0  0  0  0
   10.7782    6.6836   -2.6883 H   0  0  0  0  0  0  0  0  0  0  0  0
  1  2  1  0
  2  3  1  0
  3  4  2  0
  4  5  1  0
  5  6  2  0
  6  7  1  0
  7  8  1  0
  8  9  1  0
  9 10  1  0
 10 11  1  0
 11 12  1  0
  7  2  2  0
 12  6  1  0
  1 13  1  0
  1 14  1  0
  1 15  1  0
  3 16  1  0
  4 17  1  0
  5 18  1  0
  9 19  1  0
  9 20  1  0
 10 21  1  0
 10 22  1  0
 12 23  1  0
 12 24  1  0
M  END
>  <docking_score>  (50) 
-6.821

>  <plif_similarity>  (50) 
0.286

$$$$
Pocket2Mol_7
     RDKit          3D

 11 11  0  0  0  0  0  0  0  0999 V2000
   12.0740    6.7790   -2.4690 C   0  0  0  0  0  0  0  0  0  0  0  0
   12.3930    7.9490   -1.8830 C   0  0  0  0  0  0  0  0  0  0  0  0
   12.4350    8.9970   -2.6510 C   0  0  0  0  0  0  0  0  0  0  0  0
   12.0640    8.9510   -3.8380 N   0  0  0  0  0  0  0  0  0  0  0  0
   11.6680    7.8980   -4.4610 C   0  0  0  0  0  0  0  0  0  0  0  0
   11.6730    6.6790   -3.7330 C   0  0  0  0  0  0  0  0  0  0  0  0
   12.1490    5.8587   -1.8712 H   0  0  0  0  0  0  0  0  0  0  0  0
   12.6077    8.0146   -0.8062 H   0  0  0  0  0  0  0  0  0  0  0  0
   12.8075    9.9476   -2.2417 H   0  0  0  0  0  0  0  0  0  0  0  0
   11.3403    7.9398   -5.5102 H   0  0  0  0  0  0  0  0  0  0  0  0
   11.3676    5.7222   -4.1816 H   0  0  0  0  0  0  0  0  0  0  0  0
  1  2  2  0
  2  3  1  0
  3  4  2  0
  4  5  1  0
  5  6  2  0
  6  1  1  0
  1  7  1  0
  2  8  1  0
  3  9  1  0
  5 10  1  0
  6 11  1  0
M  END
>  <docking_score>  (51) 
-4.339

>  <plif_similarity>  (51) 
0.429

$$$$
Pocket2Mol_80
     RDKit          3D

 19 20  0  0  0  0  0  0  0  0999 V2000
   10.1650    5.8330   -7.6370 O   0  0  0  0  0  0  0  0  0  0  0  0
   10.7560    6.8640   -7.7470 N   0  0  0  0  0  0  0  0  0  0  0  0
   11.0490    7.4270   -8.8170 O   0  0  0  0  0  0  0  0  0  0  0  0
   11.2730    7.4490   -6.5110 C   0  0  0  0  0  0  0  0  0  0  0  0
   11.5840    8.8040   -6.4440 C   0  0  0  0  0  0  0  0  0  0  0  0
   12.0570    9.4730   -5.1880 C   0  0  0  0  0  0  0  0  0  0  0  0
   12.0360    8.6790   -4.0750 C   0  0  0  0  0  0  0  0  0  0  0  0
   11.6480    7.3670   -4.2810 C   0  0  0  0  0  0  0  0  0  0  0  0
   11.1810    6.6450   -5.3650 C   0  0  0  0  0  0  0  0  0  0  0  0
   11.8390    6.7810   -2.8310 C   0  0  0  0  0  0  0  0  0  0  0  0
   12.4260    7.8970   -2.0090 C   0  0  0  0  0  0  0  0  0  0  0  0
   12.4100    8.9470   -2.8390 O   0  0  0  0  0  0  0  0  0  0  0  0
   11.4779    9.4122   -7.3544 H   0  0  0  0  0  0  0  0  0  0  0  0
   12.3942   10.5198   -5.1640 H   0  0  0  0  0  0  0  0  0  0  0  0
   10.8011    5.6132   -5.3335 H   0  0  0  0  0  0  0  0  0  0  0  0
   10.8704    6.4675   -2.4144 H   0  0  0  0  0  0  0  0  0  0  0  0
   12.4925    5.8962   -2.8359 H   0  0  0  0  0  0  0  0  0  0  0  0
   11.8115    8.0925   -1.1178 H   0  0  0  0  0  0  0  0  0  0  0  0
   13.4343    7.6653   -1.6353 H   0  0  0  0  0  0  0  0  0  0  0  0
  1  2  2  0
  2  3  1  0
  2  4  1  0
  4  5  1  0
  5  6  2  0
  6  7  1  0
  7  8  2  0
  8  9  1  0
  8 10  1  0
 10 11  1  0
 11 12  1  0
  9  4  2  0
 12  7  1  0
  5 13  1  0
  6 14  1  0
  9 15  1  0
 10 16  1  0
 10 17  1  0
 11 18  1  0
 11 19  1  0
M  CHG  2   2   1   3  -1
M  END
>  <docking_score>  (52) 
-6.786

>  <plif_similarity>  (52) 
0.286

$$$$
Pocket2Mol_81
     RDKit          3D

 20 21  0  0  0  0  0  0  0  0999 V2000
   12.1480    9.7590   -1.9680 O   0  0  0  0  0  0  0  0  0  0  0  0
   11.8650    8.9160   -3.0790 C   0  0  0  0  0  0  0  0  0  0  0  0
   12.2150    7.5140   -2.9450 C   0  0  0  0  0  0  0  0  0  0  0  0
   11.7570    6.5700   -3.8990 C   0  0  0  0  0  0  0  0  0  0  0  0
   11.3430    7.1580   -5.1350 C   0  0  0  0  0  0  0  0  0  0  0  0
   11.1670    8.5860   -5.2720 C   0  0  0  0  0  0  0  0  0  0  0  0
   11.3850    9.4210   -4.1390 C   0  0  0  0  0  0  0  0  0  0  0  0
   11.1190   10.7750   -4.2440 O   0  0  0  0  0  0  0  0  0  0  0  0
   10.4080    8.9200   -6.2220 O   0  0  0  0  0  0  0  0  0  0  0  0
   10.6560    8.2800   -7.5320 C   0  0  0  0  0  0  0  0  0  0  0  0
   10.9470    6.9040   -7.2750 C   0  0  0  0  0  0  0  0  0  0  0  0
   10.7420    6.5800   -5.9930 O   0  0  0  0  0  0  0  0  0  0  0  0
   11.8590    9.4920   -1.0590 H   0  0  0  0  0  0  0  0  0  0  0  0
   12.8375    7.1825   -2.1008 H   0  0  0  0  0  0  0  0  0  0  0  0
   11.7234    5.4875   -3.7064 H   0  0  0  0  0  0  0  0  0  0  0  0
   11.8640   11.4210   -4.3330 H   0  0  0  0  0  0  0  0  0  0  0  0
    9.7634    8.3650   -8.1693 H   0  0  0  0  0  0  0  0  0  0  0  0
   11.4915    8.7674   -8.0558 H   0  0  0  0  0  0  0  0  0  0  0  0
   10.2987    6.2796   -7.9073 H   0  0  0  0  0  0  0  0  0  0  0  0
   12.0093    6.7326   -7.5035 H   0  0  0  0  0  0  0  0  0  0  0  0
  1  2  1  0
  2  3  1  0
  3  4  2  0
  4  5  1  0
  5  6  2  0
  6  7  1  0
  7  8  1  0
  6  9  1  0
  9 10  1  0
 10 11  1  0
 11 12  1  0
  7  2  2  0
 12  5  1  0
  1 13  1  0
  3 14  1  0
  4 15  1  0
  8 16  1  0
 10 17  1  0
 10 18  1  0
 11 19  1  0
 11 20  1  0
M  END
>  <docking_score>  (53) 
-6.393

>  <plif_similarity>  (53) 
0.429

$$$$
Pocket2Mol_82
     RDKit          3D

 22 23  0  0  0  0  0  0  0  0999 V2000
    9.4560    6.2660   -7.5030 C   0  0  0  0  0  0  0  0  0  0  0  0
   10.7600    6.6070   -7.5890 O   0  0  0  0  0  0  0  0  0  0  0  0
   11.2540    7.3150   -6.4060 C   0  0  0  0  0  0  0  0  0  0  0  0
   11.2300    6.5950   -5.2000 C   0  0  0  0  0  0  0  0  0  0  0  0
   11.6660    7.4250   -4.1830 C   0  0  0  0  0  0  0  0  0  0  0  0
   12.0010    8.7630   -4.0890 C   0  0  0  0  0  0  0  0  0  0  0  0
   12.0270    9.3260   -5.4190 C   0  0  0  0  0  0  0  0  0  0  0  0
   11.6270    8.5360   -6.5980 C   0  0  0  0  0  0  0  0  0  0  0  0
   11.5490    9.1080   -7.8220 O   0  0  0  0  0  0  0  0  0  0  0  0
   12.3630    9.1490   -2.8800 O   0  0  0  0  0  0  0  0  0  0  0  0
   12.4190    8.1750   -1.9650 C   0  0  0  0  0  0  0  0  0  0  0  0
   11.9600    6.9570   -2.7310 C   0  0  0  0  0  0  0  0  0  0  0  0
    9.1659    6.1901   -6.4447 H   0  0  0  0  0  0  0  0  0  0  0  0
    8.8428    7.0340   -7.9971 H   0  0  0  0  0  0  0  0  0  0  0  0
    9.2973    5.2961   -7.9971 H   0  0  0  0  0  0  0  0  0  0  0  0
   10.9170    5.5469   -5.0839 H   0  0  0  0  0  0  0  0  0  0  0  0
   12.3526   10.3678   -5.5554 H   0  0  0  0  0  0  0  0  0  0  0  0
   12.0630    9.9320   -8.0170 H   0  0  0  0  0  0  0  0  0  0  0  0
   13.4452    8.0428   -1.5916 H   0  0  0  0  0  0  0  0  0  0  0  0
   11.8059    8.3822   -1.0755 H   0  0  0  0  0  0  0  0  0  0  0  0
   12.7493    6.1908   -2.7325 H   0  0  0  0  0  0  0  0  0  0  0  0
   11.0647    6.5146   -2.2698 H   0  0  0  0  0  0  0  0  0  0  0  0
  1  2  1  0
  2  3  1  0
  3  4  2  0
  4  5  1  0
  5  6  2  0
  6  7  1  0
  7  8  2  0
  8  9  1  0
  6 10  1  0
 10 11  1  0
 11 12  1  0
  8  3  1  0
 12  5  1  0
  1 13  1  0
  1 14  1  0
  1 15  1  0
  4 16  1  0
  7 17  1  0
  9 18  1  0
 11 19  1  0
 11 20  1  0
 12 21  1  0
 12 22  1  0
M  END
>  <docking_score>  (54) 
-6.554

>  <plif_similarity>  (54) 
0.286

$$$$
Pocket2Mol_84
     RDKit          3D

 23 24  0  0  0  0  0  0  0  0999 V2000
   12.4360    7.7490   -1.9440 C   0  0  0  0  0  0  0  0  0  0  0  0
   12.0470    8.6760   -2.8580 N   0  0  0  0  0  0  0  0  0  0  0  0
   11.9920    9.9520   -2.6290 O   0  0  0  0  0  0  0  0  0  0  0  0
   11.8690    8.1870   -4.2240 C   0  0  0  0  0  0  0  0  0  0  0  0
   11.3820    6.8620   -4.5150 C   0  0  0  0  0  0  0  0  0  0  0  0
   11.1430    6.3770   -5.9960 C   0  0  0  0  0  0  0  0  0  0  0  0
   11.2690    7.2820   -6.8410 C   0  0  0  0  0  0  0  0  0  0  0  0
   11.6980    8.5380   -6.4520 C   0  0  0  0  0  0  0  0  0  0  0  0
   11.9530    9.1510   -5.2390 C   0  0  0  0  0  0  0  0  0  0  0  0
   11.8270    9.2430   -7.8550 C   0  0  0  0  0  0  0  0  0  0  0  0
   11.5200    8.1830   -8.8790 C   0  0  0  0  0  0  0  0  0  0  0  0
   11.1430    7.1300   -8.1450 O   0  0  0  0  0  0  0  0  0  0  0  0
   12.2710    8.1421   -0.9300 H   0  0  0  0  0  0  0  0  0  0  0  0
   11.8478    6.8296   -2.0810 H   0  0  0  0  0  0  0  0  0  0  0  0
   13.5041    7.5247   -2.0810 H   0  0  0  0  0  0  0  0  0  0  0  0
   12.7730   10.2230   -2.0840 H   0  0  0  0  0  0  0  0  0  0  0  0
   11.1721    6.1727   -3.6839 H   0  0  0  0  0  0  0  0  0  0  0  0
   10.8894    5.3390   -6.2572 H   0  0  0  0  0  0  0  0  0  0  0  0
   12.1833   10.2169   -5.0944 H   0  0  0  0  0  0  0  0  0  0  0  0
   11.1078   10.0715   -7.9345 H   0  0  0  0  0  0  0  0  0  0  0  0
   12.8306    9.6685   -8.0025 H   0  0  0  0  0  0  0  0  0  0  0  0
   10.7077    8.5065   -9.5464 H   0  0  0  0  0  0  0  0  0  0  0  0
   12.3770    7.9614   -9.5320 H   0  0  0  0  0  0  0  0  0  0  0  0
  1  2  1  0
  2  3  1  0
  2  4  1  0
  4  5  1  0
  5  6  2  0
  6  7  1  0
  7  8  2  0
  8  9  1  0
  8 10  1  0
 10 11  1  0
 11 12  1  0
  9  4  2  0
 12  7  1  0
  1 13  1  0
  1 14  1  0
  1 15  1  0
  3 16  1  0
  5 17  1  0
  6 18  1  0
  9 19  1  0
 10 20  1  0
 10 21  1  0
 11 22  1  0
 11 23  1  0
M  END
>  <docking_score>  (55) 
-6.625

>  <plif_similarity>  (55) 
0.286

$$$$
Pocket2Mol_85
     RDKit          3D

 22 23  0  0  0  0  0  0  0  0999 V2000
   12.0610   10.4050   -6.4830 C   0  0  0  0  0  0  0  0  0  0  0  0
   11.6200    9.0700   -6.1550 C   0  0  0  0  0  0  0  0  0  0  0  0
   10.7180    8.3530   -7.0360 N   0  0  0  0  0  0  0  0  0  0  0  0
   10.3740    7.1610   -6.7250 N   0  0  0  0  0  0  0  0  0  0  0  0
   10.6850    6.5590   -5.6140 C   0  0  0  0  0  0  0  0  0  0  0  0
   11.4830    7.1740   -4.7480 C   0  0  0  0  0  0  0  0  0  0  0  0
   11.8430    8.5310   -5.0760 C   0  0  0  0  0  0  0  0  0  0  0  0
   12.7020    9.1200   -4.1190 O   0  0  0  0  0  0  0  0  0  0  0  0
   12.0540    9.4030   -2.8130 C   0  0  0  0  0  0  0  0  0  0  0  0
   12.5260    8.3900   -1.9700 C   0  0  0  0  0  0  0  0  0  0  0  0
   12.6960    7.2470   -2.6440 O   0  0  0  0  0  0  0  0  0  0  0  0
   11.6790    6.5700   -3.2240 C   0  0  0  0  0  0  0  0  0  0  0  0
   12.2469   10.9678   -5.5563 H   0  0  0  0  0  0  0  0  0  0  0  0
   12.9889   10.3505   -7.0713 H   0  0  0  0  0  0  0  0  0  0  0  0
   11.2832   10.9139   -7.0713 H   0  0  0  0  0  0  0  0  0  0  0  0
   10.2926    5.5550   -5.3950 H   0  0  0  0  0  0  0  0  0  0  0  0
   12.3501   10.3934   -2.4368 H   0  0  0  0  0  0  0  0  0  0  0  0
   10.9562    9.4176   -2.8812 H   0  0  0  0  0  0  0  0  0  0  0  0
   13.4893    8.7003   -1.5389 H   0  0  0  0  0  0  0  0  0  0  0  0
   11.7848    8.2215   -1.1748 H   0  0  0  0  0  0  0  0  0  0  0  0
   11.9218    5.4983   -3.2735 H   0  0  0  0  0  0  0  0  0  0  0  0
   10.7542    6.6868   -2.6400 H   0  0  0  0  0  0  0  0  0  0  0  0
  1  2  1  0
  2  3  1  0
  3  4  2  0
  4  5  1  0
  5  6  2  0
  6  7  1  0
  7  8  1  0
  8  9  1  0
  9 10  1  0
 10 11  1  0
 11 12  1  0
  7  2  2  0
 12  6  1  0
  1 13  1  0
  1 14  1  0
  1 15  1  0
  5 16  1  0
  9 17  1  0
  9 18  1  0
 10 19  1  0
 10 20  1  0
 12 21  1  0
 12 22  1  0
M  END
>  <docking_score>  (56) 
-6.061

>  <plif_similarity>  (56) 
0.286

$$$$
Pocket2Mol_86
     RDKit          3D

 25 26  0  0  0  0  0  0  0  0999 V2000
    9.9020    6.0410   -7.9540 C   0  0  0  0  0  0  0  0  0  0  0  0
   10.6050    7.1030   -7.8730 N   0  0  0  0  0  0  0  0  0  0  0  0
   11.1770    7.7640   -9.0610 C   0  0  0  0  0  0  0  0  0  0  0  0
   11.1660    7.6320   -6.6380 C   0  0  0  0  0  0  0  0  0  0  0  0
   11.6170    8.9190   -6.5710 C   0  0  0  0  0  0  0  0  0  0  0  0
   12.1860    9.4500   -5.3170 C   0  0  0  0  0  0  0  0  0  0  0  0
   12.0260    8.7260   -4.2370 C   0  0  0  0  0  0  0  0  0  0  0  0
   11.6040    7.4260   -4.4490 C   0  0  0  0  0  0  0  0  0  0  0  0
   11.0830    6.7320   -5.5250 C   0  0  0  0  0  0  0  0  0  0  0  0
   11.9160    6.7980   -3.0630 C   0  0  0  0  0  0  0  0  0  0  0  0
   12.4770    7.9030   -2.2000 C   0  0  0  0  0  0  0  0  0  0  0  0
   12.4520    8.9660   -3.0110 O   0  0  0  0  0  0  0  0  0  0  0  0
    9.6637    5.6810   -6.9423 H   0  0  0  0  0  0  0  0  0  0  0  0
    8.9693    6.2591   -8.4948 H   0  0  0  0  0  0  0  0  0  0  0  0
   10.4671    5.2676   -8.4948 H   0  0  0  0  0  0  0  0  0  0  0  0
   11.8658    8.5600   -8.7417 H   0  0  0  0  0  0  0  0  0  0  0  0
   11.7251    7.0248   -9.6637 H   0  0  0  0  0  0  0  0  0  0  0  0
   10.3667    8.2002   -9.6637 H   0  0  0  0  0  0  0  0  0  0  0  0
   11.5558    9.5654   -7.4589 H   0  0  0  0  0  0  0  0  0  0  0  0
   12.7207   10.4110   -5.2904 H   0  0  0  0  0  0  0  0  0  0  0  0
   10.6879    5.7054   -5.5269 H   0  0  0  0  0  0  0  0  0  0  0  0
   10.9959    6.3964   -2.6134 H   0  0  0  0  0  0  0  0  0  0  0  0
   12.6323    5.9686   -3.1576 H   0  0  0  0  0  0  0  0  0  0  0  0
   11.8480    8.0687   -1.3129 H   0  0  0  0  0  0  0  0  0  0  0  0
   13.4818    7.6797   -1.8120 H   0  0  0  0  0  0  0  0  0  0  0  0
  1  2  1  0
  2  3  1  0
  2  4  1  0
  4  5  1  0
  5  6  2  0
  6  7  1  0
  7  8  2  0
  8  9  1  0
  8 10  1  0
 10 11  1  0
 11 12  1  0
  9  4  2  0
 12  7  1  0
  1 13  1  0
  1 14  1  0
  1 15  1  0
  3 16  1  0
  3 17  1  0
  3 18  1  0
  5 19  1  0
  6 20  1  0
  9 21  1  0
 10 22  1  0
 10 23  1  0
 11 24  1  0
 11 25  1  0
M  END
>  <docking_score>  (57) 
-6.772

>  <plif_similarity>  (57) 
0.286

$$$$
Pocket2Mol_8
     RDKit          3D

 13 13  0  0  0  0  0  0  0  0999 V2000
   11.2500    6.5390   -4.8940 C   0  0  0  0  0  0  0  0  0  0  0  0
   11.8590    7.4030   -3.8770 C   0  0  0  0  0  0  0  0  0  0  0  0
   12.0270    8.6760   -3.6770 C   0  0  0  0  0  0  0  0  0  0  0  0
   12.4180    9.1180   -2.5800 N   0  0  0  0  0  0  0  0  0  0  0  0
   12.5140    8.0770   -1.7330 C   0  0  0  0  0  0  0  0  0  0  0  0
   12.0830    6.7790   -2.3590 C   0  0  0  0  0  0  0  0  0  0  0  0
   10.6835    5.7353   -4.4009 H   0  0  0  0  0  0  0  0  0  0  0  0
   10.5708    7.1343   -5.5219 H   0  0  0  0  0  0  0  0  0  0  0  0
   12.0390    6.0994   -5.5219 H   0  0  0  0  0  0  0  0  0  0  0  0
   11.8189    9.3801   -4.4961 H   0  0  0  0  0  0  0  0  0  0  0  0
   12.8690    8.1655   -0.6956 H   0  0  0  0  0  0  0  0  0  0  0  0
   12.8665    6.0077   -2.3255 H   0  0  0  0  0  0  0  0  0  0  0  0
   11.2355    6.2506   -1.8980 H   0  0  0  0  0  0  0  0  0  0  0  0
  1  2  1  0
  2  3  2  0
  3  4  1  0
  4  5  2  0
  5  6  1  0
  6  2  1  0
  1  7  1  0
  1  8  1  0
  1  9  1  0
  3 10  1  0
  5 11  1  0
  6 12  1  0
  6 13  1  0
M  END
>  <docking_score>  (58) 
-4.365

>  <plif_similarity>  (58) 
0.286

$$$$
Pocket2Mol_90
     RDKit          3D

 23 24  0  0  0  0  0  0  0  0999 V2000
    9.1040    6.9930   -9.0310 N   0  0  0  0  0  0  0  0  0  0  0  0
    9.4440    7.6080   -7.7490 C   0  0  0  0  0  0  0  0  0  0  0  0
    8.7930    8.5270   -7.2240 O   0  0  0  0  0  0  0  0  0  0  0  0
   10.5350    7.1440   -7.2770 N   0  0  0  0  0  0  0  0  0  0  0  0
   11.1860    7.6260   -6.0670 C   0  0  0  0  0  0  0  0  0  0  0  0
   11.7000    8.8900   -6.0060 C   0  0  0  0  0  0  0  0  0  0  0  0
   12.3590    9.3720   -4.7770 C   0  0  0  0  0  0  0  0  0  0  0  0
   12.2240    8.6390   -3.7010 C   0  0  0  0  0  0  0  0  0  0  0  0
   11.7310    7.3640   -3.9080 C   0  0  0  0  0  0  0  0  0  0  0  0
   11.1200    6.7120   -4.9650 C   0  0  0  0  0  0  0  0  0  0  0  0
   12.0870    6.6980   -2.5510 C   0  0  0  0  0  0  0  0  0  0  0  0
   12.7440    7.7620   -1.7030 C   0  0  0  0  0  0  0  0  0  0  0  0
   12.7250    8.8380   -2.4970 O   0  0  0  0  0  0  0  0  0  0  0  0
    8.2450    7.2750   -9.5270 H   0  0  0  0  0  0  0  0  0  0  0  0
    9.7230    6.2780   -9.4400 H   0  0  0  0  0  0  0  0  0  0  0  0
   10.9880    6.3730   -7.7880 H   0  0  0  0  0  0  0  0  0  0  0  0
   11.6221    9.5537   -6.8798 H   0  0  0  0  0  0  0  0  0  0  0  0
   12.9386   10.3068   -4.7655 H   0  0  0  0  0  0  0  0  0  0  0  0
   10.6773    5.7050   -4.9603 H   0  0  0  0  0  0  0  0  0  0  0  0
   11.1747    6.3306   -2.0583 H   0  0  0  0  0  0  0  0  0  0  0  0
   12.7579    5.8385   -2.6965 H   0  0  0  0  0  0  0  0  0  0  0  0
   12.1713    7.9415   -0.7811 H   0  0  0  0  0  0  0  0  0  0  0  0
   13.7564    7.4869   -1.3722 H   0  0  0  0  0  0  0  0  0  0  0  0
  1  2  1  0
  2  3  2  0
  2  4  1  0
  4  5  1  0
  5  6  1  0
  6  7  2  0
  7  8  1  0
  8  9  2  0
  9 10  1  0
  9 11  1  0
 11 12  1  0
 12 13  1  0
 10  5  2  0
 13  8  1  0
  1 14  1  0
  1 15  1  0
  4 16  1  0
  6 17  1  0
  7 18  1  0
 10 19  1  0
 11 20  1  0
 11 21  1  0
 12 22  1  0
 12 23  1  0
M  END
>  <docking_score>  (59) 
-7.395

>  <plif_similarity>  (59) 
0.571

$$$$
Pocket2Mol_91
     RDKit          3D

 21 22  0  0  0  0  0  0  0  0999 V2000
   12.9050    8.4540   -1.2200 N   0  0  0  0  0  0  0  0  0  0  0  0
   12.4660    8.1550   -2.5500 C   0  0  0  0  0  0  0  0  0  0  0  0
   12.3770    9.1850   -3.5450 C   0  0  0  0  0  0  0  0  0  0  0  0
   11.9870    8.8890   -4.6690 C   0  0  0  0  0  0  0  0  0  0  0  0
   11.4710    7.5830   -5.0690 C   0  0  0  0  0  0  0  0  0  0  0  0
   11.4460    6.6160   -4.1670 C   0  0  0  0  0  0  0  0  0  0  0  0
   11.8600    6.9640   -2.8250 N   0  0  0  0  0  0  0  0  0  0  0  0
   11.0240    7.2460   -6.5870 C   0  0  0  0  0  0  0  0  0  0  0  0
   10.5170    6.1190   -6.7760 O   0  0  0  0  0  0  0  0  0  0  0  0
   10.8070    8.4040   -7.2500 O   0  0  0  0  0  0  0  0  0  0  0  0
   11.7820    9.1060   -7.8380 C   0  0  0  0  0  0  0  0  0  0  0  0
   12.7010    9.5760   -6.8930 C   0  0  0  0  0  0  0  0  0  0  0  0
   11.8730    9.8590   -5.6910 O   0  0  0  0  0  0  0  0  0  0  0  0
   12.6710    9.3620   -0.7920 H   0  0  0  0  0  0  0  0  0  0  0  0
   13.4520    7.7620   -0.6910 H   0  0  0  0  0  0  0  0  0  0  0  0
   12.6538   10.2219   -3.3036 H   0  0  0  0  0  0  0  0  0  0  0  0
   11.1257    5.5957   -4.4248 H   0  0  0  0  0  0  0  0  0  0  0  0
   12.3054    8.4608   -8.5589 H   0  0  0  0  0  0  0  0  0  0  0  0
   11.3325    9.9698   -8.3497 H   0  0  0  0  0  0  0  0  0  0  0  0
   13.4603    8.8111   -6.6728 H   0  0  0  0  0  0  0  0  0  0  0  0
   13.2519   10.4611   -7.2439 H   0  0  0  0  0  0  0  0  0  0  0  0
  1  2  1  0
  2  3  2  0
  3  4  1  0
  4  5  2  0
  5  6  1  0
  6  7  2  0
  5  8  1  0
  8  9  2  0
  8 10  1  0
 10 11  1  0
 11 12  1  0
 12 13  1  0
  7  2  1  0
 13  4  1  0
  1 14  1  0
  1 15  1  0
  3 16  1  0
  6 17  1  0
 11 18  1  0
 11 19  1  0
 12 20  1  0
 12 21  1  0
M  END
>  <docking_score>  (60) 
-6.708

>  <plif_similarity>  (60) 
0.286

$$$$
Pocket2Mol_93
     RDKit          3D

 23 25  0  0  0  0  0  0  0  0999 V2000
   11.1750    6.5340   -4.9660 C   0  0  0  0  0  0  0  0  0  0  0  0
   11.6830    7.3360   -3.9590 C   0  0  0  0  0  0  0  0  0  0  0  0
   12.0820    8.6570   -3.8690 C   0  0  0  0  0  0  0  0  0  0  0  0
   11.9500    9.2760   -5.1140 C   0  0  0  0  0  0  0  0  0  0  0  0
   11.4660    8.5600   -6.2020 C   0  0  0  0  0  0  0  0  0  0  0  0
   11.3120    7.1760   -6.2340 C   0  0  0  0  0  0  0  0  0  0  0  0
   10.8880    6.4950   -7.3790 O   0  0  0  0  0  0  0  0  0  0  0  0
   10.0080    7.1990   -8.0950 C   0  0  0  0  0  0  0  0  0  0  0  0
   10.9740    8.2040   -8.5770 C   0  0  0  0  0  0  0  0  0  0  0  0
   11.3720    9.1550   -7.4920 O   0  0  0  0  0  0  0  0  0  0  0  0
   12.5000    9.0180   -2.6710 O   0  0  0  0  0  0  0  0  0  0  0  0
   12.5420    8.0360   -1.7640 C   0  0  0  0  0  0  0  0  0  0  0  0
   12.3520    6.8760   -2.4740 C   0  0  0  0  0  0  0  0  0  0  0  0
   10.7282    5.5408   -4.8112 H   0  0  0  0  0  0  0  0  0  0  0  0
   12.2299   10.3331   -5.2335 H   0  0  0  0  0  0  0  0  0  0  0  0
    9.5593    6.6143   -8.9116 H   0  0  0  0  0  0  0  0  0  0  0  0
    9.1156    7.5707   -7.5702 H   0  0  0  0  0  0  0  0  0  0  0  0
   11.8725    7.6869   -8.9450 H   0  0  0  0  0  0  0  0  0  0  0  0
   10.4946    8.7822   -9.3807 H   0  0  0  0  0  0  0  0  0  0  0  0
   13.5182    8.0216   -1.2572 H   0  0  0  0  0  0  0  0  0  0  0  0
   11.7787    8.1674   -0.9829 H   0  0  0  0  0  0  0  0  0  0  0  0
   13.3124    6.3632   -2.6309 H   0  0  0  0  0  0  0  0  0  0  0  0
   11.6923    6.1797   -1.9355 H   0  0  0  0  0  0  0  0  0  0  0  0
  1  2  1  0
  2  3  2  0
  3  4  1  0
  4  5  2  0
  5  6  1  0
  6  7  1  0
  7  8  1  0
  8  9  1  0
  9 10  1  0
  3 11  1  0
 11 12  1  0
 12 13  1  0
  6  1  2  0
 13  2  1  0
 10  5  1  0
  1 14  1  0
  4 15  1  0
  8 16  1  0
  8 17  1  0
  9 18  1  0
  9 19  1  0
 12 20  1  0
 12 21  1  0
 13 22  1  0
 13 23  1  0
M  END
>  <docking_score>  (61) 
-7.544

>  <plif_similarity>  (61) 
0.286

$$$$
Pocket2Mol_94
     RDKit          3D

 24 25  0  0  0  0  0  0  0  0999 V2000
    9.4450    6.4280   -9.0300 C   0  0  0  0  0  0  0  0  0  0  0  0
    9.7980    7.0980   -7.7830 C   0  0  0  0  0  0  0  0  0  0  0  0
    9.0730    8.0580   -7.3770 O   0  0  0  0  0  0  0  0  0  0  0  0
   10.8300    6.7640   -7.2280 N   0  0  0  0  0  0  0  0  0  0  0  0
   11.3460    7.3930   -6.0200 C   0  0  0  0  0  0  0  0  0  0  0  0
   11.7500    8.6960   -6.0290 C   0  0  0  0  0  0  0  0  0  0  0  0
   12.2730    9.3280   -4.8020 C   0  0  0  0  0  0  0  0  0  0  0  0
   12.1150    8.6710   -3.6800 C   0  0  0  0  0  0  0  0  0  0  0  0
   11.7430    7.3460   -3.8140 C   0  0  0  0  0  0  0  0  0  0  0  0
   11.2690    6.5640   -4.8520 C   0  0  0  0  0  0  0  0  0  0  0  0
   12.0460    6.8210   -2.3840 C   0  0  0  0  0  0  0  0  0  0  0  0
   12.5490    8.0000   -1.5850 C   0  0  0  0  0  0  0  0  0  0  0  0
   12.5050    9.0060   -2.4650 O   0  0  0  0  0  0  0  0  0  0  0  0
    8.9431    5.4754   -8.8051 H   0  0  0  0  0  0  0  0  0  0  0  0
    8.7683    7.0704   -9.6126 H   0  0  0  0  0  0  0  0  0  0  0  0
   10.3575    6.2331   -9.6126 H   0  0  0  0  0  0  0  0  0  0  0  0
   11.3710    5.9900   -7.6380 H   0  0  0  0  0  0  0  0  0  0  0  0
   11.6854    9.2806   -6.9586 H   0  0  0  0  0  0  0  0  0  0  0  0
   12.7733   10.3073   -4.8287 H   0  0  0  0  0  0  0  0  0  0  0  0
   10.9092    5.5261   -4.7940 H   0  0  0  0  0  0  0  0  0  0  0  0
   11.1308    6.4164   -1.9271 H   0  0  0  0  0  0  0  0  0  0  0  0
   12.7925    6.0135   -2.4094 H   0  0  0  0  0  0  0  0  0  0  0  0
   11.8951    8.2006   -0.7235 H   0  0  0  0  0  0  0  0  0  0  0  0
   13.5521    7.8391   -1.1632 H   0  0  0  0  0  0  0  0  0  0  0  0
  1  2  1  0
  2  3  2  0
  2  4  1  0
  4  5  1  0
  5  6  1  0
  6  7  2  0
  7  8  1  0
  8  9  2  0
  9 10  1  0
  9 11  1  0
 11 12  1  0
 12 13  1  0
 10  5  2  0
 13  8  1  0
  1 14  1  0
  1 15  1  0
  1 16  1  0
  4 17  1  0
  6 18  1  0
  7 19  1  0
 10 20  1  0
 11 21  1  0
 11 22  1  0
 12 23  1  0
 12 24  1  0
M  END
>  <docking_score>  (62) 
-7.351

>  <plif_similarity>  (62) 
0.286

$$$$
Pocket2Mol_96
     RDKit          3D

 20 21  0  0  0  0  0  0  0  0999 V2000
   12.1010   10.6650   -6.1060 O   0  0  0  0  0  0  0  0  0  0  0  0
   11.6590    9.4990   -6.1810 C   0  0  0  0  0  0  0  0  0  0  0  0
   11.5290    8.7020   -7.2660 O   0  0  0  0  0  0  0  0  0  0  0  0
   10.3650    8.1600   -7.6430 C   0  0  0  0  0  0  0  0  0  0  0  0
    9.8870    7.2730   -6.6720 C   0  0  0  0  0  0  0  0  0  0  0  0
   11.1160    6.6610   -6.1030 O   0  0  0  0  0  0  0  0  0  0  0  0
   11.4770    7.1640   -4.8320 C   0  0  0  0  0  0  0  0  0  0  0  0
   11.5640    6.4300   -3.8530 C   0  0  0  0  0  0  0  0  0  0  0  0
   11.9390    7.0010   -2.5910 C   0  0  0  0  0  0  0  0  0  0  0  0
   12.3700    8.3170   -2.5870 C   0  0  0  0  0  0  0  0  0  0  0  0
   12.9190    8.7880   -1.3470 F   0  0  0  0  0  0  0  0  0  0  0  0
   12.3450    9.0900   -3.6970 C   0  0  0  0  0  0  0  0  0  0  0  0
   11.8510    8.5750   -4.8670 C   0  0  0  0  0  0  0  0  0  0  0  0
    9.6267    8.9616   -7.7926 H   0  0  0  0  0  0  0  0  0  0  0  0
   10.5243    7.6032   -8.5782 H   0  0  0  0  0  0  0  0  0  0  0  0
    9.3233    7.8109   -5.8955 H   0  0  0  0  0  0  0  0  0  0  0  0
    9.1964    6.5245   -7.0876 H   0  0  0  0  0  0  0  0  0  0  0  0
   11.3582    5.3530   -3.9409 H   0  0  0  0  0  0  0  0  0  0  0  0
   11.8861    6.4152   -1.6615 H   0  0  0  0  0  0  0  0  0  0  0  0
   12.7184   10.1241   -3.6607 H   0  0  0  0  0  0  0  0  0  0  0  0
  1  2  2  0
  2  3  1  0
  3  4  1  0
  4  5  1  0
  5  6  1  0
  6  7  1  0
  7  8  1  0
  8  9  2  0
  9 10  1  0
 10 11  1  0
 10 12  2  0
 12 13  1  0
 13  2  1  0
 13  7  2  0
  4 14  1  0
  4 15  1  0
  5 16  1  0
  5 17  1  0
  8 18  1  0
  9 19  1  0
 12 20  1  0
M  END
>  <docking_score>  (63) 
-7.435

>  <plif_similarity>  (63) 
0.429

$$$$
Pocket2Mol_97
     RDKit          3D

 24 25  0  0  0  0  0  0  0  0999 V2000
   12.1230   10.4420   -6.4790 C   0  0  0  0  0  0  0  0  0  0  0  0
   11.6870    9.1010   -6.1690 C   0  0  0  0  0  0  0  0  0  0  0  0
   10.7710    8.4350   -7.1070 C   0  0  0  0  0  0  0  0  0  0  0  0
   10.4330    7.1820   -6.8460 C   0  0  0  0  0  0  0  0  0  0  0  0
    9.6510    6.5310   -7.8730 F   0  0  0  0  0  0  0  0  0  0  0  0
   10.7440    6.5690   -5.6760 C   0  0  0  0  0  0  0  0  0  0  0  0
   11.5410    7.1930   -4.7800 C   0  0  0  0  0  0  0  0  0  0  0  0
   11.8970    8.5560   -5.0910 C   0  0  0  0  0  0  0  0  0  0  0  0
   12.7340    9.1430   -4.1140 O   0  0  0  0  0  0  0  0  0  0  0  0
   12.0600    9.4100   -2.8170 C   0  0  0  0  0  0  0  0  0  0  0  0
   12.5260    8.3950   -1.9750 C   0  0  0  0  0  0  0  0  0  0  0  0
   12.7170    7.2580   -2.6540 O   0  0  0  0  0  0  0  0  0  0  0  0
   11.7160    6.5780   -3.2570 C   0  0  0  0  0  0  0  0  0  0  0  0
   12.3026   10.9943   -5.5448 H   0  0  0  0  0  0  0  0  0  0  0  0
   13.0534   10.3990   -7.0642 H   0  0  0  0  0  0  0  0  0  0  0  0
   11.3452   10.9544   -7.0642 H   0  0  0  0  0  0  0  0  0  0  0  0
   10.3812    8.9585   -7.9925 H   0  0  0  0  0  0  0  0  0  0  0  0
   10.3483    5.5662   -5.4571 H   0  0  0  0  0  0  0  0  0  0  0  0
   12.3405   10.3998   -2.4277 H   0  0  0  0  0  0  0  0  0  0  0  0
   10.9635    9.4158   -2.9044 H   0  0  0  0  0  0  0  0  0  0  0  0
   13.4793    8.7099   -1.5256 H   0  0  0  0  0  0  0  0  0  0  0  0
   11.7726    8.2143   -1.1941 H   0  0  0  0  0  0  0  0  0  0  0  0
   11.9683    5.5087   -3.3110 H   0  0  0  0  0  0  0  0  0  0  0  0
   10.7803    6.6829   -2.6882 H   0  0  0  0  0  0  0  0  0  0  0  0
  1  2  1  0
  2  3  1  0
  3  4  2  0
  4  5  1  0
  4  6  1  0
  6  7  2  0
  7  8  1  0
  8  9  1  0
  9 10  1  0
 10 11  1  0
 11 12  1  0
 12 13  1  0
  8  2  2  0
 13  7  1  0
  1 14  1  0
  1 15  1  0
  1 16  1  0
  3 17  1  0
  6 18  1  0
 10 19  1  0
 10 20  1  0
 11 21  1  0
 11 22  1  0
 13 23  1  0
 13 24  1  0
M  END
>  <docking_score>  (64) 
-7.049

>  <plif_similarity>  (64) 
0.286

$$$$
Pocket2Mol_98
     RDKit          3D

 23 24  0  0  0  0  0  0  0  0999 V2000
    9.4130    6.3760   -9.0600 C   0  0  0  0  0  0  0  0  0  0  0  0
    9.7180    7.0300   -7.7820 C   0  0  0  0  0  0  0  0  0  0  0  0
    9.0430    8.2200   -7.4330 O   0  0  0  0  0  0  0  0  0  0  0  0
   10.6990    6.6340   -7.2400 N   0  0  0  0  0  0  0  0  0  0  0  0
   11.2720    7.2900   -6.0660 C   0  0  0  0  0  0  0  0  0  0  0  0
   11.7760    8.6340   -6.0240 C   0  0  0  0  0  0  0  0  0  0  0  0
   12.1960    9.3830   -4.7600 C   0  0  0  0  0  0  0  0  0  0  0  0
   12.1500    8.6620   -3.7480 C   0  0  0  0  0  0  0  0  0  0  0  0
   11.7430    7.3440   -3.8540 C   0  0  0  0  0  0  0  0  0  0  0  0
   11.2230    6.5610   -4.8690 C   0  0  0  0  0  0  0  0  0  0  0  0
   11.9920    6.8480   -2.3790 C   0  0  0  0  0  0  0  0  0  0  0  0
   12.6220    8.0070   -1.6550 C   0  0  0  0  0  0  0  0  0  0  0  0
   12.5790    9.0030   -2.5480 O   0  0  0  0  0  0  0  0  0  0  0  0
    8.9551    5.3942   -8.8694 H   0  0  0  0  0  0  0  0  0  0  0  0
    8.7137    7.0014   -9.6342 H   0  0  0  0  0  0  0  0  0  0  0  0
   10.3416    6.2422   -9.6342 H   0  0  0  0  0  0  0  0  0  0  0  0
   11.8673    9.1686   -6.9810 H   0  0  0  0  0  0  0  0  0  0  0  0
   12.5038   10.4390   -4.7469 H   0  0  0  0  0  0  0  0  0  0  0  0
   10.8358    5.5376   -4.7561 H   0  0  0  0  0  0  0  0  0  0  0  0
   11.0400    6.5711   -1.9026 H   0  0  0  0  0  0  0  0  0  0  0  0
   12.6380    5.9580   -2.3558 H   0  0  0  0  0  0  0  0  0  0  0  0
   12.0476    8.2645   -0.7529 H   0  0  0  0  0  0  0  0  0  0  0  0
   13.6435    7.7886   -1.3103 H   0  0  0  0  0  0  0  0  0  0  0  0
  1  2  1  0
  2  3  1  0
  2  4  2  3
  4  5  1  0
  5  6  1  0
  6  7  2  0
  7  8  1  0
  8  9  2  0
  9 10  1  0
  9 11  1  0
 11 12  1  0
 12 13  1  0
 10  5  2  0
 13  8  1  0
  1 14  1  0
  1 15  1  0
  1 16  1  0
  6 17  1  0
  7 18  1  0
 10 19  1  0
 11 20  1  0
 11 21  1  0
 12 22  1  0
 12 23  1  0
M  CHG  1   3  -1
M  END
>  <docking_score>  (65) 
-7.406

>  <plif_similarity>  (65) 
0.286

$$$$
