Pocket2Mol_0
     RDKit          3D

 19 19  0  0  0  0  0  0  0  0999 V2000
   38.0550   33.2740   56.3180 N   0  0  0  0  0  0  0  0  0  0  0  0
   38.8590   32.3450   56.0330 C   0  0  0  0  0  0  0  0  0  0  0  0
   38.5500   31.5010   54.8100 C   0  0  0  0  0  0  0  0  0  0  0  0
   39.5600   30.6650   54.2990 C   0  0  0  0  0  0  0  0  0  0  0  0
   39.3640   30.1020   53.1090 C   0  0  0  0  0  0  0  0  0  0  0  0
   39.9350   30.5600   51.9750 C   0  0  0  0  0  0  0  0  0  0  0  0
   40.3370   29.6980   50.9350 C   0  0  0  0  0  0  0  0  0  0  0  0
   39.8440   28.4070   50.8790 C   0  0  0  0  0  0  0  0  0  0  0  0
   39.2500   27.8810   52.0680 C   0  0  0  0  0  0  0  0  0  0  0  0
   39.0300   28.7680   53.0970 C   0  0  0  0  0  0  0  0  0  0  0  0
   38.2280   33.8710   57.1400 H   0  0  0  0  0  0  0  0  0  0  0  0
   39.7508   32.1536   56.6478 H   0  0  0  0  0  0  0  0  0  0  0  0
   37.5592   31.5419   54.3340 H   0  0  0  0  0  0  0  0  0  0  0  0
   40.4844   30.4821   54.8664 H   0  0  0  0  0  0  0  0  0  0  0  0
   40.0919   31.6425   51.8586 H   0  0  0  0  0  0  0  0  0  0  0  0
   41.0422   30.0517   50.1685 H   0  0  0  0  0  0  0  0  0  0  0  0
   39.9064   27.8096   49.9575 H   0  0  0  0  0  0  0  0  0  0  0  0
   38.9815   26.8179   52.1563 H   0  0  0  0  0  0  0  0  0  0  0  0
   38.5391   28.3712   53.9978 H   0  0  0  0  0  0  0  0  0  0  0  0
  1  2  2  3
  2  3  1  0
  3  4  2  3
  4  5  1  0
  5  6  2  0
  6  7  1  0
  7  8  2  0
  8  9  1  0
  9 10  2  0
 10  5  1  0
  1 11  1  0
  2 12  1  0
  3 13  1  0
  4 14  1  0
  6 15  1  0
  7 16  1  0
  8 17  1  0
  9 18  1  0
 10 19  1  0
M  END
>  <docking_score>  (1) 
-6.652

>  <plif_similarity>  (1) 
0.444

$$$$
Pocket2Mol_10
     RDKit          3D

 12 12  0  0  0  0  0  0  0  0999 V2000
   38.9100   28.9660   53.4890 C   0  0  0  0  0  0  0  0  0  0  0  0
   39.4370   29.1500   52.0720 C   0  0  0  0  0  0  0  0  0  0  0  0
   40.0660   30.3530   51.8140 C   0  0  0  0  0  0  0  0  0  0  0  0
   40.5370   30.4510   50.6300 C   0  0  0  0  0  0  0  0  0  0  0  0
   40.2450   29.4560   49.7890 C   0  0  0  0  0  0  0  0  0  0  0  0
   39.3610   28.0880   51.0660 S   0  0  0  0  0  0  0  0  0  0  0  0
   39.6941   29.2398   54.2103 H   0  0  0  0  0  0  0  0  0  0  0  0
   38.0316   29.6106   53.6401 H   0  0  0  0  0  0  0  0  0  0  0  0
   38.6237   27.9147   53.6401 H   0  0  0  0  0  0  0  0  0  0  0  0
   40.1536   31.1552   52.5615 H   0  0  0  0  0  0  0  0  0  0  0  0
   41.1506   31.3098   50.3202 H   0  0  0  0  0  0  0  0  0  0  0  0
   40.4259   29.3828   48.7065 H   0  0  0  0  0  0  0  0  0  0  0  0
  1  2  1  0
  2  3  2  0
  3  4  1  0
  4  5  2  0
  5  6  1  0
  6  2  1  0
  1  7  1  0
  1  8  1  0
  1  9  1  0
  3 10  1  0
  4 11  1  0
  5 12  1  0
M  END
>  <docking_score>  (2) 
-4.536

>  <plif_similarity>  (2) 
0.444

$$$$
Pocket2Mol_16
     RDKit          3D

 18 18  0  0  0  0  0  0  0  0999 V2000
   39.9650   27.6720   51.5950 C   0  0  0  0  0  0  0  0  0  0  0  0
   39.2290   28.4990   51.0260 C   0  0  0  0  0  0  0  0  0  0  0  0
   39.8930   29.2810   50.1530 C   0  0  0  0  0  0  0  0  0  0  0  0
   40.6460   30.1870   50.7290 C   0  0  0  0  0  0  0  0  0  0  0  0
   40.2440   30.3990   51.8140 C   0  0  0  0  0  0  0  0  0  0  0  0
   39.3920   29.7790   51.9130 C   0  0  0  0  0  0  0  0  0  0  0  0
   39.8666   27.7825   52.6850 H   0  0  0  0  0  0  0  0  0  0  0  0
   39.6685   26.6542   51.3014 H   0  0  0  0  0  0  0  0  0  0  0  0
   41.0103   27.8484   51.3014 H   0  0  0  0  0  0  0  0  0  0  0  0
   38.3251   27.9410   50.7404 H   0  0  0  0  0  0  0  0  0  0  0  0
   40.5344   28.6403   49.5300 H   0  0  0  0  0  0  0  0  0  0  0  0
   39.1375   29.8178   49.5606 H   0  0  0  0  0  0  0  0  0  0  0  0
   41.6815   29.8203   50.7868 H   0  0  0  0  0  0  0  0  0  0  0  0
   40.6181   31.1155   50.1398 H   0  0  0  0  0  0  0  0  0  0  0  0
   41.0028   30.1376   52.5662 H   0  0  0  0  0  0  0  0  0  0  0  0
   40.0042   31.4615   51.9675 H   0  0  0  0  0  0  0  0  0  0  0  0
   39.3687   29.4413   52.9596 H   0  0  0  0  0  0  0  0  0  0  0  0
   38.5748   30.4266   51.5626 H   0  0  0  0  0  0  0  0  0  0  0  0
  1  2  1  0
  2  3  1  0
  3  4  1  0
  4  5  1  0
  5  6  1  0
  6  2  1  0
  1  7  1  0
  1  8  1  0
  1  9  1  0
  2 10  1  0
  3 11  1  0
  3 12  1  0
  4 13  1  0
  4 14  1  0
  5 15  1  0
  5 16  1  0
  6 17  1  0
  6 18  1  0
M  END
>  <docking_score>  (3) 
-4.727

>  <plif_similarity>  (3) 
0.222

$$$$
Pocket2Mol_1
     RDKit          3D

 20 21  0  0  0  0  0  0  0  0999 V2000
   39.0540   27.3510   50.6370 O   0  0  0  0  0  0  0  0  0  0  0  0
   39.1560   28.3110   51.7000 C   0  0  0  0  0  0  0  0  0  0  0  0
   38.7190   27.9510   52.9190 C   0  0  0  0  0  0  0  0  0  0  0  0
   38.9070   28.9190   53.8060 C   0  0  1  0  0  0  0  0  0  0  0  0
   38.5680   29.0480   55.2970 N   0  0  0  0  0  0  0  0  0  0  0  0
   38.9160   30.3900   55.8680 C   0  0  0  0  0  0  0  0  0  0  0  0
   39.4290   30.9040   54.7300 C   0  0  0  0  0  0  0  0  0  0  0  0
   39.4500   30.1480   53.6170 C   0  0  0  0  0  0  0  0  0  0  0  0
   39.8620   30.4750   52.4830 C   0  0  0  0  0  0  0  0  0  0  0  0
   39.7280   29.4870   51.3830 C   0  0  0  0  0  0  0  0  0  0  0  0
   38.4730   26.5560   50.7420 H   0  0  0  0  0  0  0  0  0  0  0  0
   38.2633   26.9772   53.1515 H   0  0  0  0  0  0  0  0  0  0  0  0
   37.9276   29.3472   53.5463 H   0  0  0  0  0  0  0  0  0  0  0  0
   37.5570   28.8930   55.4180 H   0  0  0  0  0  0  0  0  0  0  0  0
   39.1310   28.3470   55.8010 H   0  0  0  0  0  0  0  0  0  0  0  0
   38.0330   30.9420   56.2224 H   0  0  0  0  0  0  0  0  0  0  0  0
   39.5624   30.4023   56.7580 H   0  0  0  0  0  0  0  0  0  0  0  0
   39.8256   31.9299   54.7127 H   0  0  0  0  0  0  0  0  0  0  0  0
   40.3099   31.4639   52.3057 H   0  0  0  0  0  0  0  0  0  0  0  0
   40.0777   29.7047   50.3631 H   0  0  0  0  0  0  0  0  0  0  0  0
  1  2  1  0
  2  3  2  0
  3  4  1  0
  4  5  1  0
  5  6  1  0
  6  7  1  0
  7  8  2  0
  8  9  1  0
  9 10  2  0
 10  2  1  0
  8  4  1  0
  1 11  1  0
  3 12  1  0
  4 13  1  6
  5 14  1  0
  5 15  1  0
  6 16  1  0
  6 17  1  0
  7 18  1  0
  9 19  1  0
 10 20  1  0
M  CHG  1   5   1
M  END
>  <docking_score>  (4) 
-6.03

>  <plif_similarity>  (4) 
0.222

$$$$
Pocket2Mol_20
     RDKit          3D

 11 11  0  0  0  0  0  0  0  0999 V2000
   38.9660   27.4410   50.6870 O   0  0  0  0  0  0  0  0  0  0  0  0
   39.4270   28.4490   50.7830 N   0  0  0  0  0  0  0  0  0  0  0  0
   39.4810   29.2700   52.0030 C   0  0  0  0  0  0  0  0  0  0  0  0
   40.0500   30.4540   51.9330 C   0  0  0  0  0  0  0  0  0  0  0  0
   40.4860   30.3660   50.6650 C   0  0  0  0  0  0  0  0  0  0  0  0
   40.1400   29.3750   49.9690 C   0  0  0  0  0  0  0  0  0  0  0  0
   39.0610   26.9310   49.8430 H   0  0  0  0  0  0  0  0  0  0  0  0
   39.0565   28.9031   52.9492 H   0  0  0  0  0  0  0  0  0  0  0  0
   40.1402   31.2599   52.6762 H   0  0  0  0  0  0  0  0  0  0  0  0
   41.1347   31.1470   50.2417 H   0  0  0  0  0  0  0  0  0  0  0  0
   40.3552   29.2448   48.8981 H   0  0  0  0  0  0  0  0  0  0  0  0
  1  2  1  0
  2  3  1  0
  3  4  2  0
  4  5  1  0
  5  6  2  0
  6  2  1  0
  1  7  1  0
  3  8  1  0
  4  9  1  0
  5 10  1  0
  6 11  1  0
M  END
>  <docking_score>  (5) 
-4.328

>  <plif_similarity>  (5) 
0.444

$$$$
Pocket2Mol_21
     RDKit          3D

 13 13  0  0  0  0  0  0  0  0999 V2000
   38.6720   27.5100   51.7540 C   0  0  0  0  0  0  0  0  0  0  0  0
   39.3290   28.5710   51.4840 N   0  0  0  0  0  0  0  0  0  0  0  0
   39.9730   29.1750   50.3070 C   0  0  0  0  0  0  0  0  0  0  0  0
   40.5220   30.3630   50.4380 C   0  0  0  0  0  0  0  0  0  0  0  0
   40.1310   30.6010   51.7020 C   0  0  0  0  0  0  0  0  0  0  0  0
   39.5600   29.6810   52.3460 C   0  0  0  0  0  0  0  0  0  0  0  0
   38.5988   27.3918   52.8452 H   0  0  0  0  0  0  0  0  0  0  0  0
   37.6620   27.5849   51.3247 H   0  0  0  0  0  0  0  0  0  0  0  0
   39.1892   26.6392   51.3247 H   0  0  0  0  0  0  0  0  0  0  0  0
   39.9948   28.6466   49.3424 H   0  0  0  0  0  0  0  0  0  0  0  0
   41.1134   30.9693   49.7361 H   0  0  0  0  0  0  0  0  0  0  0  0
   40.3067   31.5826   52.1662 H   0  0  0  0  0  0  0  0  0  0  0  0
   39.2828   29.7278   53.4095 H   0  0  0  0  0  0  0  0  0  0  0  0
  1  2  1  0
  2  3  1  0
  3  4  2  0
  4  5  1  0
  5  6  2  0
  6  2  1  0
  1  7  1  0
  1  8  1  0
  1  9  1  0
  3 10  1  0
  4 11  1  0
  5 12  1  0
  6 13  1  0
M  END
>  <docking_score>  (6) 
-4.08

>  <plif_similarity>  (6) 
0.444

$$$$
Pocket2Mol_24
     RDKit          3D

 11 11  0  0  0  0  0  0  0  0999 V2000
   39.6170   30.4510   53.5710 C   0  0  0  0  0  0  0  0  0  0  0  0
   39.1740   29.3510   52.6560 C   0  0  0  0  0  0  0  0  0  0  0  0
   39.8510   29.1510   51.4730 C   0  0  0  0  0  0  0  0  0  0  0  0
   39.4230   28.2190   50.8010 C   0  0  0  0  0  0  0  0  0  0  0  0
   38.4530   27.4930   51.4280 N   0  0  0  0  0  0  0  0  0  0  0  0
   38.2090   28.2250   52.8950 S   0  0  0  0  0  0  0  0  0  0  0  0
   39.4888   30.1326   54.6161 H   0  0  0  0  0  0  0  0  0  0  0  0
   40.6769   30.6786   53.3845 H   0  0  0  0  0  0  0  0  0  0  0  0
   39.0107   31.3496   53.3845 H   0  0  0  0  0  0  0  0  0  0  0  0
   40.7017   29.7734   51.1586 H   0  0  0  0  0  0  0  0  0  0  0  0
   39.7867   27.9900   49.7885 H   0  0  0  0  0  0  0  0  0  0  0  0
  1  2  1  0
  2  3  2  0
  3  4  1  0
  4  5  2  0
  5  6  1  0
  6  2  1  0
  1  7  1  0
  1  8  1  0
  1  9  1  0
  3 10  1  0
  4 11  1  0
M  END
>  <docking_score>  (7) 
-4.094

>  <plif_similarity>  (7) 
0.222

$$$$
Pocket2Mol_27
     RDKit          3D

 15 15  0  0  0  0  0  0  0  0999 V2000
   39.4560   30.5820   54.1020 C   0  0  0  0  0  0  0  0  0  0  0  0
   39.6340   29.9730   52.7110 C   0  0  0  0  0  0  0  0  0  0  0  0
   39.1550   28.6240   52.6020 C   0  0  0  0  0  0  0  0  0  0  0  0
   39.1220   28.0890   51.3680 C   0  0  0  0  0  0  0  0  0  0  0  0
   39.7930   28.6680   50.3360 C   0  0  0  0  0  0  0  0  0  0  0  0
   40.3160   30.0410   50.6460 C   0  0  0  0  0  0  0  0  0  0  0  0
   40.1730   30.6110   51.7500 C   0  0  0  0  0  0  0  0  0  0  0  0
   39.6780   29.8224   54.8660 H   0  0  0  0  0  0  0  0  0  0  0  0
   40.1430   31.4329   54.2204 H   0  0  0  0  0  0  0  0  0  0  0  0
   38.4189   30.9289   54.2204 H   0  0  0  0  0  0  0  0  0  0  0  0
   38.8304   28.0548   53.4855 H   0  0  0  0  0  0  0  0  0  0  0  0
   38.5440   27.1700   51.1910 H   0  0  0  0  0  0  0  0  0  0  0  0
   39.9391   28.1754   49.3634 H   0  0  0  0  0  0  0  0  0  0  0  0
   40.8580   30.5782   49.8538 H   0  0  0  0  0  0  0  0  0  0  0  0
   40.5083   31.6494   51.8889 H   0  0  0  0  0  0  0  0  0  0  0  0
  1  2  1  0
  2  3  2  0
  3  4  1  0
  4  5  2  0
  5  6  1  0
  6  7  2  0
  7  2  1  0
  1  8  1  0
  1  9  1  0
  1 10  1  0
  3 11  1  0
  4 12  1  0
  5 13  1  0
  6 14  1  0
  7 15  1  0
M  END
>  <docking_score>  (8) 
-5.655

>  <plif_similarity>  (8) 
0.444

$$$$
Pocket2Mol_29
     RDKit          3D

 13 13  0  0  0  0  0  0  0  0999 V2000
   38.0650   27.4630   52.4860 O   0  0  0  0  0  0  0  0  0  0  0  0
   38.9570   28.5790   51.9330 C   0  0  0  0  0  0  0  0  0  0  0  0
   39.3500   29.6690   52.5370 C   0  0  0  0  0  0  0  0  0  0  0  0
   40.0690   30.5110   52.0090 C   0  0  0  0  0  0  0  0  0  0  0  0
   40.5750   30.3440   50.7340 C   0  0  0  0  0  0  0  0  0  0  0  0
   40.1040   29.0210   50.1210 C   0  0  0  0  0  0  0  0  0  0  0  0
   39.4050   28.2500   50.6970 C   0  0  0  0  0  0  0  0  0  0  0  0
   37.1380   27.6640   52.7680 H   0  0  0  0  0  0  0  0  0  0  0  0
   39.0191   29.8403   53.5720 H   0  0  0  0  0  0  0  0  0  0  0  0
   40.3183   31.4257   52.5668 H   0  0  0  0  0  0  0  0  0  0  0  0
   41.2303   31.0665   50.2255 H   0  0  0  0  0  0  0  0  0  0  0  0
   40.4278   28.7724   49.0995 H   0  0  0  0  0  0  0  0  0  0  0  0
   39.1281   27.2903   50.2362 H   0  0  0  0  0  0  0  0  0  0  0  0
  1  2  1  0
  2  3  2  0
  3  4  1  0
  4  5  2  0
  5  6  1  0
  6  7  2  0
  7  2  1  0
  1  8  1  0
  3  9  1  0
  4 10  1  0
  5 11  1  0
  6 12  1  0
  7 13  1  0
M  END
>  <docking_score>  (9) 
-5.231

>  <plif_similarity>  (9) 
0.444

$$$$
Pocket2Mol_2
     RDKit          3D

 15 14  0  0  0  0  0  0  0  0999 V2000
   40.5490   30.3330   50.1120 C   0  0  0  0  0  0  0  0  0  0  0  0
   40.1880   30.3580   51.4510 C   0  0  0  0  0  0  0  0  0  0  0  0
   39.5580   29.2380   51.7990 C   0  0  0  0  0  0  0  0  0  0  0  0
   39.4830   28.1920   50.7050 C   0  0  0  0  0  0  0  0  0  0  0  0
   38.6450   27.1150   51.0970 O   0  0  0  0  0  0  0  0  0  0  0  0
   41.6432   30.2572   50.0286 H   0  0  0  0  0  0  0  0  0  0  0  0
   40.0830   29.4650   49.6227 H   0  0  0  0  0  0  0  0  0  0  0  0
   40.2071   31.2570   49.6227 H   0  0  0  0  0  0  0  0  0  0  0  0
   41.0941   30.4661   52.0653 H   0  0  0  0  0  0  0  0  0  0  0  0
   39.5070   31.2065   51.6132 H   0  0  0  0  0  0  0  0  0  0  0  0
   40.0869   28.7992   52.6579 H   0  0  0  0  0  0  0  0  0  0  0  0
   38.5210   29.5221   52.0311 H   0  0  0  0  0  0  0  0  0  0  0  0
   39.0763   28.6524   49.7925 H   0  0  0  0  0  0  0  0  0  0  0  0
   40.4947   27.8029   50.5178 H   0  0  0  0  0  0  0  0  0  0  0  0
   38.3070   26.6500   50.2910 H   0  0  0  0  0  0  0  0  0  0  0  0
  1  2  1  0
  2  3  1  0
  3  4  1  0
  4  5  1  0
  1  6  1  0
  1  7  1  0
  1  8  1  0
  2  9  1  0
  2 10  1  0
  3 11  1  0
  3 12  1  0
  4 13  1  0
  4 14  1  0
  5 15  1  0
M  END
>  <docking_score>  (10) 
-3.96

>  <plif_similarity>  (10) 
0.333

$$$$
Pocket2Mol_30
     RDKit          3D

 14 14  0  0  0  0  0  0  0  0999 V2000
   38.0530   27.5620   52.6650 N   0  0  0  0  0  0  0  0  0  0  0  0
   39.0160   28.4360   51.9400 C   0  0  0  0  0  0  0  0  0  0  0  0
   39.4520   28.2850   50.6990 C   0  0  0  0  0  0  0  0  0  0  0  0
   40.0490   29.1580   50.2450 C   0  0  0  0  0  0  0  0  0  0  0  0
   40.5390   30.2610   50.7800 C   0  0  0  0  0  0  0  0  0  0  0  0
   40.0680   30.5330   52.0640 C   0  0  0  0  0  0  0  0  0  0  0  0
   39.2690   29.6250   52.6820 C   0  0  0  0  0  0  0  0  0  0  0  0
   38.3650   27.0230   53.4850 H   0  0  0  0  0  0  0  0  0  0  0  0
   37.0760   27.4960   52.3460 H   0  0  0  0  0  0  0  0  0  0  0  0
   39.2526   27.3665   50.1276 H   0  0  0  0  0  0  0  0  0  0  0  0
   40.2477   29.0544   49.1681 H   0  0  0  0  0  0  0  0  0  0  0  0
   41.2573   30.9099   50.2576 H   0  0  0  0  0  0  0  0  0  0  0  0
   40.3401   31.4711   52.5700 H   0  0  0  0  0  0  0  0  0  0  0  0
   38.8476   29.7957   53.6836 H   0  0  0  0  0  0  0  0  0  0  0  0
  1  2  1  0
  2  3  2  0
  3  4  1  0
  4  5  2  0
  5  6  1  0
  6  7  2  0
  7  2  1  0
  1  8  1  0
  1  9  1  0
  3 10  1  0
  4 11  1  0
  5 12  1  0
  6 13  1  0
  7 14  1  0
M  END
>  <docking_score>  (11) 
-5.301

>  <plif_similarity>  (11) 
0.444

$$$$
Pocket2Mol_34
     RDKit          3D

 12 12  0  0  0  0  0  0  0  0999 V2000
   41.1150   30.5940   49.8160 F   0  0  0  0  0  0  0  0  0  0  0  0
   40.3190   29.8740   50.7880 C   0  0  0  0  0  0  0  0  0  0  0  0
   39.8150   28.6320   50.6510 C   0  0  0  0  0  0  0  0  0  0  0  0
   39.2520   27.9600   51.3960 C   0  0  0  0  0  0  0  0  0  0  0  0
   38.9990   28.4670   52.5910 C   0  0  0  0  0  0  0  0  0  0  0  0
   39.3750   29.8220   52.9400 C   0  0  0  0  0  0  0  0  0  0  0  0
   40.0640   30.4980   52.0100 C   0  0  0  0  0  0  0  0  0  0  0  0
   39.9678   28.1844   49.6579 H   0  0  0  0  0  0  0  0  0  0  0  0
   38.9380   26.9408   51.1263 H   0  0  0  0  0  0  0  0  0  0  0  0
   38.4894   27.8432   53.3401 H   0  0  0  0  0  0  0  0  0  0  0  0
   39.1109   30.2690   53.9098 H   0  0  0  0  0  0  0  0  0  0  0  0
   40.4200   31.5203   52.2053 H   0  0  0  0  0  0  0  0  0  0  0  0
  1  2  1  0
  2  3  2  0
  3  4  1  0
  4  5  2  0
  5  6  1  0
  6  7  2  0
  7  2  1  0
  3  8  1  0
  4  9  1  0
  5 10  1  0
  6 11  1  0
  7 12  1  0
M  END
>  <docking_score>  (12) 
-5.438

>  <plif_similarity>  (12) 
0.444

$$$$
Pocket2Mol_37
     RDKit          3D

 11 11  0  0  0  0  0  0  0  0999 V2000
   37.8590   27.6110   51.8910 O   0  0  0  0  0  0  0  0  0  0  0  0
   38.9300   28.4060   51.8590 C   0  0  0  0  0  0  0  0  0  0  0  0
   39.6450   28.4370   50.5940 C   0  0  0  0  0  0  0  0  0  0  0  0
   40.1600   29.5160   50.2790 C   0  0  0  0  0  0  0  0  0  0  0  0
   40.2580   30.4800   51.1550 C   0  0  0  0  0  0  0  0  0  0  0  0
   39.8070   30.4810   52.5260 C   0  0  0  0  0  0  0  0  0  0  0  0
   39.1980   29.1950   52.7800 O   0  0  0  0  0  0  0  0  0  0  0  0
   39.7238   27.5479   49.9511 H   0  0  0  0  0  0  0  0  0  0  0  0
   40.5373   29.6648   49.2565 H   0  0  0  0  0  0  0  0  0  0  0  0
   40.7432   31.4032   50.8053 H   0  0  0  0  0  0  0  0  0  0  0  0
   39.9080   31.3076   53.2447 H   0  0  0  0  0  0  0  0  0  0  0  0
  1  2  2  0
  2  3  1  0
  3  4  2  0
  4  5  1  0
  5  6  2  0
  6  7  1  0
  7  2  1  0
  3  8  1  0
  4  9  1  0
  5 10  1  0
  6 11  1  0
M  END
>  <docking_score>  (13) 
-5.254

>  <plif_similarity>  (13) 
0.444

$$$$
Pocket2Mol_3
     RDKit          3D

  9  9  0  0  0  0  0  0  0  0999 V2000
   40.3360   30.2450   50.4080 C   0  0  0  0  0  0  0  0  0  0  0  0
   39.7850   28.7080   50.5380 C   0  0  0  0  0  0  0  0  0  0  0  0
   39.1850   28.5220   51.6770 C   0  0  0  0  0  0  0  0  0  0  0  0
   39.3980   29.6270   52.2730 O   0  0  0  0  0  0  0  0  0  0  0  0
   40.1140   30.4480   51.7450 C   0  0  0  0  0  0  0  0  0  0  0  0
   40.7250   30.8619   49.5845 H   0  0  0  0  0  0  0  0  0  0  0  0
   39.9063   27.9354   49.7645 H   0  0  0  0  0  0  0  0  0  0  0  0
   38.6354   27.6383   52.0334 H   0  0  0  0  0  0  0  0  0  0  0  0
   40.5529   31.2926   52.2964 H   0  0  0  0  0  0  0  0  0  0  0  0
  1  2  1  0
  2  3  2  0
  3  4  1  0
  4  5  1  0
  5  1  2  0
  1  6  1  0
  2  7  1  0
  3  8  1  0
  5  9  1  0
M  END
>  <docking_score>  (14) 
-3.617

>  <plif_similarity>  (14) 
0.444

$$$$
Pocket2Mol_40
     RDKit          3D

 12 12  0  0  0  0  0  0  0  0999 V2000
   40.3630   30.2510   50.2130 C   0  0  0  0  0  0  0  0  0  0  0  0
   39.7750   29.6840   51.4690 C   0  0  0  0  0  0  0  0  0  0  0  0
   39.7910   30.4440   52.6170 C   0  0  0  0  0  0  0  0  0  0  0  0
   39.2740   29.8990   53.5860 C   0  0  0  0  0  0  0  0  0  0  0  0
   38.6730   28.7100   53.2900 N   0  0  0  0  0  0  0  0  0  0  0  0
   38.7850   28.3870   51.8280 C   0  0  0  0  0  0  0  0  0  0  0  0
   38.4820   27.6040   51.1090 O   0  0  0  0  0  0  0  0  0  0  0  0
   41.1327   30.9932   50.4710 H   0  0  0  0  0  0  0  0  0  0  0  0
   40.8174   29.4415   49.6229 H   0  0  0  0  0  0  0  0  0  0  0  0
   39.5705   30.7345   49.6229 H   0  0  0  0  0  0  0  0  0  0  0  0
   40.2293   31.4520   52.6610 H   0  0  0  0  0  0  0  0  0  0  0  0
   39.2928   30.3280   54.5987 H   0  0  0  0  0  0  0  0  0  0  0  0
  1  2  1  0
  2  3  2  0
  3  4  1  0
  4  5  2  0
  5  6  1  0
  6  7  2  0
  6  2  1  0
  1  8  1  0
  1  9  1  0
  1 10  1  0
  3 11  1  0
  4 12  1  0
M  END
>  <docking_score>  (15) 
-5.111

>  <plif_similarity>  (15) 
0.222

$$$$
Pocket2Mol_41
     RDKit          3D

 15 15  0  0  0  0  0  0  0  0999 V2000
   37.9960   27.2050   53.8880 C   0  0  0  0  0  0  0  0  0  0  0  0
   38.7240   28.0450   52.8460 C   0  0  0  0  0  0  0  0  0  0  0  0
   38.9150   27.4450   51.6160 C   0  0  0  0  0  0  0  0  0  0  0  0
   39.4850   28.1970   50.7540 C   0  0  0  0  0  0  0  0  0  0  0  0
   39.9250   29.3790   51.1930 C   0  0  0  0  0  0  0  0  0  0  0  0
   40.6820   30.3800   50.2730 C   0  0  0  0  0  0  0  0  0  0  0  0
   39.1590   29.4480   53.0060 S   0  0  0  0  0  0  0  0  0  0  0  0
   38.2853   27.5388   54.8954 H   0  0  0  0  0  0  0  0  0  0  0  0
   36.9098   27.3231   53.7605 H   0  0  0  0  0  0  0  0  0  0  0  0
   38.2673   26.1466   53.7605 H   0  0  0  0  0  0  0  0  0  0  0  0
   38.6043   26.4125   51.3982 H   0  0  0  0  0  0  0  0  0  0  0  0
   39.6068   27.8869   49.7057 H   0  0  0  0  0  0  0  0  0  0  0  0
   41.2302   31.1049   50.8926 H   0  0  0  0  0  0  0  0  0  0  0  0
   41.3918   29.8296   49.6380 H   0  0  0  0  0  0  0  0  0  0  0  0
   39.9591   30.9131   49.6380 H   0  0  0  0  0  0  0  0  0  0  0  0
  1  2  1  0
  2  3  2  0
  3  4  1  0
  4  5  2  0
  5  6  1  0
  5  7  1  0
  7  2  1  0
  1  8  1  0
  1  9  1  0
  1 10  1  0
  3 11  1  0
  4 12  1  0
  6 13  1  0
  6 14  1  0
  6 15  1  0
M  END
>  <docking_score>  (16) 
-5.104

>  <plif_similarity>  (16) 
0.333

$$$$
Pocket2Mol_49
     RDKit          3D

 16 16  0  0  0  0  0  0  0  0999 V2000
   38.0210   27.5870   53.5370 C   0  0  0  0  0  0  0  0  0  0  0  0
   38.7940   28.6130   52.7190 C   0  0  0  0  0  0  0  0  0  0  0  0
   39.1830   29.7540   53.3940 C   0  0  0  0  0  0  0  0  0  0  0  0
   39.8700   30.5690   52.6890 C   0  0  0  0  0  0  0  0  0  0  0  0
   40.2340   30.3320   51.3350 C   0  0  0  0  0  0  0  0  0  0  0  0
   39.8160   29.1540   50.7070 C   0  0  0  0  0  0  0  0  0  0  0  0
   39.1510   28.3360   51.4970 C   0  0  0  0  0  0  0  0  0  0  0  0
   38.6890   27.1330   50.9000 O   0  0  0  0  0  0  0  0  0  0  0  0
   38.1701   27.7849   54.6087 H   0  0  0  0  0  0  0  0  0  0  0  0
   36.9500   27.6580   53.2965 H   0  0  0  0  0  0  0  0  0  0  0  0
   38.3846   26.5771   53.2965 H   0  0  0  0  0  0  0  0  0  0  0  0
   38.9241   29.9443   54.4460 H   0  0  0  0  0  0  0  0  0  0  0  0
   40.1989   31.5086   53.1569 H   0  0  0  0  0  0  0  0  0  0  0  0
   40.8391   31.0686   50.7861 H   0  0  0  0  0  0  0  0  0  0  0  0
   40.0236   28.9311   49.6500 H   0  0  0  0  0  0  0  0  0  0  0  0
   38.5460   27.0880   49.9220 H   0  0  0  0  0  0  0  0  0  0  0  0
  1  2  1  0
  2  3  2  0
  3  4  1  0
  4  5  2  0
  5  6  1  0
  6  7  2  0
  7  8  1  0
  7  2  1  0
  1  9  1  0
  1 10  1  0
  1 11  1  0
  3 12  1  0
  4 13  1  0
  5 14  1  0
  6 15  1  0
  8 16  1  0
M  END
>  <docking_score>  (17) 
-5.771

>  <plif_similarity>  (17) 
0.444

$$$$
Pocket2Mol_50
     RDKit          3D

 14 14  0  0  0  0  0  0  0  0999 V2000
   38.5840   26.9900   51.0310 O   0  0  0  0  0  0  0  0  0  0  0  0
   39.2100   28.2480   51.1880 C   0  0  0  0  0  0  0  0  0  0  0  0
   39.8390   28.8970   50.2240 C   0  0  0  0  0  0  0  0  0  0  0  0
   40.3870   30.1540   50.3450 C   0  0  0  0  0  0  0  0  0  0  0  0
   40.3890   30.5920   51.4900 C   0  0  0  0  0  0  0  0  0  0  0  0
   39.7520   30.2310   52.5080 C   0  0  0  0  0  0  0  0  0  0  0  0
   39.6750   30.7130   53.8830 O   0  0  0  0  0  0  0  0  0  0  0  0
   39.0770   28.8740   52.5510 C   0  0  0  0  0  0  0  0  0  0  0  0
   37.6460   26.8650   51.3200 H   0  0  0  0  0  0  0  0  0  0  0  0
   39.9318   28.3942   49.2500 H   0  0  0  0  0  0  0  0  0  0  0  0
   40.7881   30.7164   49.4889 H   0  0  0  0  0  0  0  0  0  0  0  0
   41.0634   31.4458   51.6517 H   0  0  0  0  0  0  0  0  0  0  0  0
   40.1490   31.5430   54.1450 H   0  0  0  0  0  0  0  0  0  0  0  0
   38.5785   28.4262   53.4233 H   0  0  0  0  0  0  0  0  0  0  0  0
  1  2  1  0
  2  3  1  0
  3  4  2  0
  4  5  1  0
  5  6  2  0
  6  7  1  0
  6  8  1  0
  8  2  2  0
  1  9  1  0
  3 10  1  0
  4 11  1  0
  5 12  1  0
  7 13  1  0
  8 14  1  0
M  END
>  <docking_score>  (18) 
-5.496

>  <plif_similarity>  (18) 
0.444

$$$$
Pocket2Mol_51
     RDKit          3D

 18 18  0  0  0  0  0  0  0  0999 V2000
   40.6510   30.3740   50.0060 C   0  0  0  0  0  0  0  0  0  0  0  0
   40.0120   29.6540   51.1870 C   0  0  0  0  0  0  0  0  0  0  0  0
   39.8610   30.4010   52.3390 C   0  0  0  0  0  0  0  0  0  0  0  0
   39.2790   29.7790   53.2910 C   0  0  0  0  0  0  0  0  0  0  0  0
   39.0250   28.4840   53.0880 C   0  0  0  0  0  0  0  0  0  0  0  0
   38.3660   27.5840   54.1720 C   0  0  0  0  0  0  0  0  0  0  0  0
   39.2850   27.7470   51.7670 C   0  0  0  0  0  0  0  0  0  0  0  0
   39.6860   28.4610   50.9860 C   0  0  0  0  0  0  0  0  0  0  0  0
   41.3384   31.1485   50.3770 H   0  0  0  0  0  0  0  0  0  0  0  0
   41.2097   29.6505   49.3942 H   0  0  0  0  0  0  0  0  0  0  0  0
   39.8662   30.8428   49.3942 H   0  0  0  0  0  0  0  0  0  0  0  0
   40.2111   31.4399   52.4288 H   0  0  0  0  0  0  0  0  0  0  0  0
   39.0018   30.2836   54.2283 H   0  0  0  0  0  0  0  0  0  0  0  0
   38.6377   27.9550   55.1713 H   0  0  0  0  0  0  0  0  0  0  0  0
   37.2725   27.6109   54.0557 H   0  0  0  0  0  0  0  0  0  0  0  0
   38.7218   26.5497   54.0557 H   0  0  0  0  0  0  0  0  0  0  0  0
   39.1064   26.6742   51.6024 H   0  0  0  0  0  0  0  0  0  0  0  0
   39.7993   28.0745   49.9624 H   0  0  0  0  0  0  0  0  0  0  0  0
  1  2  1  0
  2  3  1  0
  3  4  2  0
  4  5  1  0
  5  6  1  0
  5  7  2  0
  7  8  1  0
  8  2  2  0
  1  9  1  0
  1 10  1  0
  1 11  1  0
  3 12  1  0
  4 13  1  0
  6 14  1  0
  6 15  1  0
  6 16  1  0
  7 17  1  0
  8 18  1  0
M  END
>  <docking_score>  (19) 
-6.161

>  <plif_similarity>  (19) 
0.444

$$$$
Pocket2Mol_52
     RDKit          3D

 16 16  0  0  0  0  0  0  0  0999 V2000
   39.4870   30.5930   54.1870 C   0  0  0  0  0  0  0  0  0  0  0  0
   39.6150   30.0700   52.7590 C   0  0  0  0  0  0  0  0  0  0  0  0
   40.2580   30.6330   51.7700 C   0  0  0  0  0  0  0  0  0  0  0  0
   40.3610   30.1270   50.6580 C   0  0  0  0  0  0  0  0  0  0  0  0
   39.7750   28.8880   50.3930 C   0  0  0  0  0  0  0  0  0  0  0  0
   39.1460   28.2270   51.3180 C   0  0  0  0  0  0  0  0  0  0  0  0
   38.5730   26.9570   51.1000 O   0  0  0  0  0  0  0  0  0  0  0  0
   39.0240   28.7760   52.5860 C   0  0  0  0  0  0  0  0  0  0  0  0
   39.6869   29.7761   54.8960 H   0  0  0  0  0  0  0  0  0  0  0  0
   40.2133   31.4035   54.3471 H   0  0  0  0  0  0  0  0  0  0  0  0
   38.4685   30.9764   54.3471 H   0  0  0  0  0  0  0  0  0  0  0  0
   40.7309   31.6108   51.9443 H   0  0  0  0  0  0  0  0  0  0  0  0
   40.9170   30.6510   49.8666 H   0  0  0  0  0  0  0  0  0  0  0  0
   39.8472   28.4629   49.3810 H   0  0  0  0  0  0  0  0  0  0  0  0
   37.9200   26.8270   50.3650 H   0  0  0  0  0  0  0  0  0  0  0  0
   38.5078   28.2528   53.4044 H   0  0  0  0  0  0  0  0  0  0  0  0
  1  2  1  0
  2  3  2  0
  3  4  1  0
  4  5  2  0
  5  6  1  0
  6  7  1  0
  6  8  2  0
  8  2  1  0
  1  9  1  0
  1 10  1  0
  1 11  1  0
  3 12  1  0
  4 13  1  0
  5 14  1  0
  7 15  1  0
  8 16  1  0
M  END
>  <docking_score>  (20) 
-6.164

>  <plif_similarity>  (20) 
0.444

$$$$
Pocket2Mol_53
     RDKit          3D

 16 16  0  0  0  0  0  0  0  0999 V2000
   40.6790   30.3190   50.2970 C   0  0  0  0  0  0  0  0  0  0  0  0
   40.0060   29.6150   51.3430 C   0  0  0  0  0  0  0  0  0  0  0  0
   39.6870   30.1080   52.4450 C   0  0  0  0  0  0  0  0  0  0  0  0
   38.7950   29.2590   53.1630 C   0  0  0  0  0  0  0  0  0  0  0  0
   38.1520   28.1810   52.8020 C   0  0  0  0  0  0  0  0  0  0  0  0
   37.2330   27.4480   53.4940 N   0  0  0  0  0  0  0  0  0  0  0  0
   38.4900   27.7250   51.4800 N   0  0  0  0  0  0  0  0  0  0  0  0
   39.3780   28.4210   50.7160 C   0  0  0  0  0  0  0  0  0  0  0  0
   41.3761   31.0483   50.7354 H   0  0  0  0  0  0  0  0  0  0  0  0
   41.2386   29.6047   49.6753 H   0  0  0  0  0  0  0  0  0  0  0  0
   39.9402   30.8459   49.6753 H   0  0  0  0  0  0  0  0  0  0  0  0
   40.0496   31.0780   52.8160 H   0  0  0  0  0  0  0  0  0  0  0  0
   38.6169   29.5657   54.2042 H   0  0  0  0  0  0  0  0  0  0  0  0
   37.0240   26.4810   53.2090 H   0  0  0  0  0  0  0  0  0  0  0  0
   36.7470   27.8630   54.3030 H   0  0  0  0  0  0  0  0  0  0  0  0
   39.6185   28.1153   49.6871 H   0  0  0  0  0  0  0  0  0  0  0  0
  1  2  1  0
  2  3  2  0
  3  4  1  0
  4  5  2  0
  5  6  1  0
  5  7  1  0
  7  8  2  0
  8  2  1  0
  1  9  1  0
  1 10  1  0
  1 11  1  0
  3 12  1  0
  4 13  1  0
  6 14  1  0
  6 15  1  0
  8 16  1  0
M  END
>  <docking_score>  (21) 
-5.769

>  <plif_similarity>  (21) 
0.333

$$$$
Pocket2Mol_54
     RDKit          3D

 17 17  0  0  0  0  0  0  0  0999 V2000
   39.5430   30.5810   54.2240 C   0  0  0  0  0  0  0  0  0  0  0  0
   39.6540   30.0660   52.8730 C   0  0  0  0  0  0  0  0  0  0  0  0
   40.2400   30.6810   51.8320 C   0  0  0  0  0  0  0  0  0  0  0  0
   40.1540   30.0620   50.6690 C   0  0  0  0  0  0  0  0  0  0  0  0
   39.8330   28.9930   50.3920 C   0  0  0  0  0  0  0  0  0  0  0  0
   39.2930   28.2600   51.3520 C   0  0  0  0  0  0  0  0  0  0  0  0
   38.6070   26.9470   51.2000 N   0  0  0  0  0  0  0  0  0  0  0  0
   39.0450   28.7460   52.6640 C   0  0  0  0  0  0  0  0  0  0  0  0
   39.7185   29.7667   54.9424 H   0  0  0  0  0  0  0  0  0  0  0  0
   40.2911   31.3727   54.3772 H   0  0  0  0  0  0  0  0  0  0  0  0
   38.5352   30.9943   54.3772 H   0  0  0  0  0  0  0  0  0  0  0  0
   40.7608   31.6436   51.9422 H   0  0  0  0  0  0  0  0  0  0  0  0
   40.4421   30.6822   49.8074 H   0  0  0  0  0  0  0  0  0  0  0  0
   39.9688   28.5976   49.3745 H   0  0  0  0  0  0  0  0  0  0  0  0
   38.0360   26.5730   51.9710 H   0  0  0  0  0  0  0  0  0  0  0  0
   38.7040   26.4130   50.3250 H   0  0  0  0  0  0  0  0  0  0  0  0
   38.4692   28.2019   53.4272 H   0  0  0  0  0  0  0  0  0  0  0  0
  1  2  1  0
  2  3  2  0
  3  4  1  0
  4  5  2  0
  5  6  1  0
  6  7  1  0
  6  8  2  0
  8  2  1  0
  1  9  1  0
  1 10  1  0
  1 11  1  0
  3 12  1  0
  4 13  1  0
  5 14  1  0
  7 15  1  0
  7 16  1  0
  8 17  1  0
M  END
>  <docking_score>  (22) 
-5.9

>  <plif_similarity>  (22) 
0.444

$$$$
Pocket2Mol_56
     RDKit          3D

 17 17  0  0  0  0  0  0  0  0999 V2000
   40.7510   30.2910   50.1940 C   0  0  0  0  0  0  0  0  0  0  0  0
   39.8550   29.6450   51.2900 C   0  0  0  0  0  0  0  0  0  0  0  0
   39.7570   30.1510   52.5220 C   0  0  0  0  0  0  0  0  0  0  0  0
   38.9570   29.5550   53.3200 C   0  0  0  0  0  0  0  0  0  0  0  0
   38.4200   28.3880   52.8120 C   0  0  0  0  0  0  0  0  0  0  0  0
   37.5030   27.6130   53.7500 C   0  0  0  0  0  0  0  0  0  0  0  0
   38.5120   27.8660   51.6970 N   0  0  0  0  0  0  0  0  0  0  0  0
   39.1640   28.3560   50.8250 C   0  0  0  0  0  0  0  0  0  0  0  0
   41.5546   30.8704   50.6719 H   0  0  0  0  0  0  0  0  0  0  0  0
   41.1911   29.5011   49.5676 H   0  0  0  0  0  0  0  0  0  0  0  0
   40.1406   30.9582   49.5676 H   0  0  0  0  0  0  0  0  0  0  0  0
   40.3344   31.0340   52.8331 H   0  0  0  0  0  0  0  0  0  0  0  0
   38.7170   29.9373   54.3231 H   0  0  0  0  0  0  0  0  0  0  0  0
   37.7700   27.8386   54.7930 H   0  0  0  0  0  0  0  0  0  0  0  0
   36.4587   27.9064   53.5671 H   0  0  0  0  0  0  0  0  0  0  0  0
   37.6182   26.5344   53.5671 H   0  0  0  0  0  0  0  0  0  0  0  0
   39.2578   27.9353   49.8130 H   0  0  0  0  0  0  0  0  0  0  0  0
  1  2  1  0
  2  3  2  0
  3  4  1  0
  4  5  2  0
  5  6  1  0
  5  7  1  0
  7  8  2  0
  8  2  1  0
  1  9  1  0
  1 10  1  0
  1 11  1  0
  3 12  1  0
  4 13  1  0
  6 14  1  0
  6 15  1  0
  6 16  1  0
  8 17  1  0
M  END
>  <docking_score>  (23) 
-5.69

>  <plif_similarity>  (23) 
0.444

$$$$
Pocket2Mol_57
     RDKit          3D

 16 16  0  0  0  0  0  0  0  0999 V2000
   40.6770   30.3690   49.9690 C   0  0  0  0  0  0  0  0  0  0  0  0
   39.9350   29.5800   51.0050 C   0  0  0  0  0  0  0  0  0  0  0  0
   39.8240   30.0520   52.2250 C   0  0  0  0  0  0  0  0  0  0  0  0
   39.1060   29.2410   53.0440 C   0  0  0  0  0  0  0  0  0  0  0  0
   38.7400   27.9580   52.8310 C   0  0  0  0  0  0  0  0  0  0  0  0
   38.0700   27.1780   53.7340 O   0  0  0  0  0  0  0  0  0  0  0  0
   39.0410   27.6270   51.5440 C   0  0  0  0  0  0  0  0  0  0  0  0
   39.6860   28.3250   50.6030 C   0  0  0  0  0  0  0  0  0  0  0  0
   41.3496   31.0842   50.4650 H   0  0  0  0  0  0  0  0  0  0  0  0
   41.2672   29.6856   49.3408 H   0  0  0  0  0  0  0  0  0  0  0  0
   39.9587   30.9162   49.3408 H   0  0  0  0  0  0  0  0  0  0  0  0
   40.2665   31.0052   52.5500 H   0  0  0  0  0  0  0  0  0  0  0  0
   38.7826   29.6829   53.9980 H   0  0  0  0  0  0  0  0  0  0  0  0
   37.5830   27.5990   54.4860 H   0  0  0  0  0  0  0  0  0  0  0  0
   38.7001   26.6295   51.2297 H   0  0  0  0  0  0  0  0  0  0  0  0
   39.9760   27.9204   49.6221 H   0  0  0  0  0  0  0  0  0  0  0  0
  1  2  1  0
  2  3  1  0
  3  4  2  0
  4  5  1  0
  5  6  1  0
  5  7  2  0
  7  8  1  0
  8  2  2  0
  1  9  1  0
  1 10  1  0
  1 11  1  0
  3 12  1  0
  4 13  1  0
  6 14  1  0
  7 15  1  0
  8 16  1  0
M  END
>  <docking_score>  (24) 
-5.683

>  <plif_similarity>  (24) 
0.444

$$$$
Pocket2Mol_58
     RDKit          3D

 17 17  0  0  0  0  0  0  0  0999 V2000
   40.7400   30.3730   50.1810 C   0  0  0  0  0  0  0  0  0  0  0  0
   40.1170   29.6320   51.2320 C   0  0  0  0  0  0  0  0  0  0  0  0
   39.6980   30.1230   52.3010 C   0  0  0  0  0  0  0  0  0  0  0  0
   38.8890   29.1990   53.0240 C   0  0  0  0  0  0  0  0  0  0  0  0
   38.3950   28.0370   52.6860 C   0  0  0  0  0  0  0  0  0  0  0  0
   37.5460   27.2240   53.3780 N   0  0  0  0  0  0  0  0  0  0  0  0
   38.8470   27.5710   51.4060 C   0  0  0  0  0  0  0  0  0  0  0  0
   39.6630   28.3470   50.6350 C   0  0  0  0  0  0  0  0  0  0  0  0
   41.3908   31.1470   50.6139 H   0  0  0  0  0  0  0  0  0  0  0  0
   41.3419   29.6932   49.5600 H   0  0  0  0  0  0  0  0  0  0  0  0
   39.9670   30.8492   49.5600 H   0  0  0  0  0  0  0  0  0  0  0  0
   39.9255   31.1435   52.6427 H   0  0  0  0  0  0  0  0  0  0  0  0
   38.6360   29.5199   54.0453 H   0  0  0  0  0  0  0  0  0  0  0  0
   37.8100   26.8790   54.3120 H   0  0  0  0  0  0  0  0  0  0  0  0
   36.6410   26.9550   52.9660 H   0  0  0  0  0  0  0  0  0  0  0  0
   38.5333   26.5809   51.0437 H   0  0  0  0  0  0  0  0  0  0  0  0
   39.9692   28.0384   49.6245 H   0  0  0  0  0  0  0  0  0  0  0  0
  1  2  1  0
  2  3  1  0
  3  4  2  0
  4  5  1  0
  5  6  1  0
  5  7  2  0
  7  8  1  0
  8  2  2  0
  1  9  1  0
  1 10  1  0
  1 11  1  0
  3 12  1  0
  4 13  1  0
  6 14  1  0
  6 15  1  0
  7 16  1  0
  8 17  1  0
M  END
>  <docking_score>  (25) 
-5.956

>  <plif_similarity>  (25) 
0.444

$$$$
Pocket2Mol_59
     RDKit          3D

 16 16  0  0  0  0  0  0  0  0999 V2000
   38.0740   27.4250   52.5480 N   0  0  0  0  0  0  0  0  0  0  0  0
   39.0200   28.3690   51.8900 C   0  0  0  0  0  0  0  0  0  0  0  0
   39.4830   28.2990   50.6520 C   0  0  0  0  0  0  0  0  0  0  0  0
   40.0570   29.2150   50.2570 C   0  0  0  0  0  0  0  0  0  0  0  0
   40.5000   30.3020   50.8600 C   0  0  0  0  0  0  0  0  0  0  0  0
   40.0030   30.4850   52.1510 C   0  0  0  0  0  0  0  0  0  0  0  0
   39.2190   29.5230   52.7000 C   0  0  0  0  0  0  0  0  0  0  0  0
   38.7020   29.6410   54.0000 N   0  0  0  0  0  0  0  0  0  0  0  0
   38.2820   26.4170   52.5650 H   0  0  0  0  0  0  0  0  0  0  0  0
   37.2130   27.7810   52.9860 H   0  0  0  0  0  0  0  0  0  0  0  0
   39.3263   27.4060   50.0291 H   0  0  0  0  0  0  0  0  0  0  0  0
   40.2765   29.1776   49.1798 H   0  0  0  0  0  0  0  0  0  0  0  0
   41.2013   31.0040   50.3854 H   0  0  0  0  0  0  0  0  0  0  0  0
   40.2436   31.3974   52.7164 H   0  0  0  0  0  0  0  0  0  0  0  0
   38.2850   28.8220   54.4650 H   0  0  0  0  0  0  0  0  0  0  0  0
   38.7390   30.5480   54.4880 H   0  0  0  0  0  0  0  0  0  0  0  0
  1  2  1  0
  2  3  2  0
  3  4  1  0
  4  5  2  0
  5  6  1  0
  6  7  2  0
  7  8  1  0
  7  2  1  0
  1  9  1  0
  1 10  1  0
  3 11  1  0
  4 12  1  0
  5 13  1  0
  6 14  1  0
  8 15  1  0
  8 16  1  0
M  END
>  <docking_score>  (26) 
-5.36

>  <plif_similarity>  (26) 
0.444

$$$$
Pocket2Mol_60
     RDKit          3D

 11 11  0  0  0  0  0  0  0  0999 V2000
   37.2310   28.1040   52.5150 O   0  0  0  0  0  0  0  0  0  0  0  0
   38.4900   28.0770   52.6140 C   0  0  0  0  0  0  0  0  0  0  0  0
   39.0030   27.1910   53.4630 O   0  0  0  0  0  0  0  0  0  0  0  0
   39.3140   28.8450   51.7000 C   0  0  0  0  0  0  0  0  0  0  0  0
   39.8440   29.9850   51.7880 C   0  0  0  0  0  0  0  0  0  0  0  0
   40.5900   30.4340   50.7650 C   0  0  0  0  0  0  0  0  0  0  0  0
   40.3350   29.4580   49.9210 C   0  0  0  0  0  0  0  0  0  0  0  0
   39.4970   28.3910   50.3850 N   0  0  0  0  0  0  0  0  0  0  0  0
   39.6983   30.6018   52.6871 H   0  0  0  0  0  0  0  0  0  0  0  0
   41.2158   31.3331   50.6649 H   0  0  0  0  0  0  0  0  0  0  0  0
   40.7476   29.4602   48.9013 H   0  0  0  0  0  0  0  0  0  0  0  0
  1  2  2  0
  2  3  1  0
  2  4  1  0
  4  5  2  0
  5  6  1  0
  6  7  2  0
  7  8  1  0
  8  4  1  0
  5  9  1  0
  6 10  1  0
  7 11  1  0
M  CHG  2   3  -1   8  -1
M  END
>  <docking_score>  (27) 
-4.873

>  <plif_similarity>  (27) 
0.444

$$$$
Pocket2Mol_64
     RDKit          3D

 15 15  0  0  0  0  0  0  0  0999 V2000
   38.7500   27.1840   50.8500 N   0  0  0  0  0  0  0  0  0  0  0  0
   39.0950   28.4090   51.6710 C   0  0  0  0  0  0  0  0  0  0  0  0
   39.8710   29.3690   50.7040 C   0  0  0  0  0  0  0  0  0  0  0  0
   40.1740   30.4450   51.4480 C   0  0  0  0  0  0  0  0  0  0  0  0
   39.8140   30.5190   52.7560 C   0  0  0  0  0  0  0  0  0  0  0  0
   39.1570   29.6800   53.4640 C   0  0  0  0  0  0  0  0  0  0  0  0
   38.7380   29.7480   54.8570 O   0  0  0  0  0  0  0  0  0  0  0  0
   38.6970   28.4070   52.8560 C   0  0  0  0  0  0  0  0  0  0  0  0
   38.1850   27.2800   49.9940 H   0  0  0  0  0  0  0  0  0  0  0  0
   39.0810   26.2550   51.1460 H   0  0  0  0  0  0  0  0  0  0  0  0
   40.1145   29.1980   49.6450 H   0  0  0  0  0  0  0  0  0  0  0  0
   40.7232   31.2811   50.9905 H   0  0  0  0  0  0  0  0  0  0  0  0
   40.1332   31.4311   53.2816 H   0  0  0  0  0  0  0  0  0  0  0  0
   39.4110   29.8980   55.5680 H   0  0  0  0  0  0  0  0  0  0  0  0
   38.1176   27.6145   53.3522 H   0  0  0  0  0  0  0  0  0  0  0  0
  1  2  1  0
  2  3  2  0
  3  4  1  0
  4  5  2  0
  5  6  1  0
  6  7  1  0
  6  8  2  0
  8  2  1  0
  1  9  1  0
  1 10  1  0
  3 11  1  0
  4 12  1  0
  5 13  1  0
  7 14  1  0
  8 15  1  0
M  END
>  <docking_score>  (28) 
-5.156

>  <plif_similarity>  (28) 
0.444

$$$$
Pocket2Mol_67
     RDKit          3D

 12 12  0  0  0  0  0  0  0  0999 V2000
   37.3590   27.9970   52.7480 O   0  0  0  0  0  0  0  0  0  0  0  0
   38.5480   28.5770   52.5770 C   0  0  0  0  0  0  0  0  0  0  0  0
   38.9460   29.5020   53.3030 O   0  0  0  0  0  0  0  0  0  0  0  0
   39.7610   30.5780   52.7860 C   0  0  0  0  0  0  0  0  0  0  0  0
   40.2040   30.1880   51.4700 C   0  0  0  0  0  0  0  0  0  0  0  0
   39.7810   29.1310   50.6990 C   0  0  0  0  0  0  0  0  0  0  0  0
   39.2570   28.1980   51.3650 C   0  0  0  0  0  0  0  0  0  0  0  0
   38.6770   27.0710   50.6550 O   0  0  0  0  0  0  0  0  0  0  0  0
   39.9993   31.5203   53.3011 H   0  0  0  0  0  0  0  0  0  0  0  0
   40.9849   30.8210   51.0233 H   0  0  0  0  0  0  0  0  0  0  0  0
   39.8896   29.1024   49.6048 H   0  0  0  0  0  0  0  0  0  0  0  0
   39.1620   26.6620   49.8950 H   0  0  0  0  0  0  0  0  0  0  0  0
  1  2  2  0
  2  3  1  0
  3  4  1  0
  4  5  2  0
  5  6  1  0
  6  7  2  0
  7  8  1  0
  7  2  1  0
  4  9  1  0
  5 10  1  0
  6 11  1  0
  8 12  1  0
M  END
>  <docking_score>  (29) 
-5.295

>  <plif_similarity>  (29) 
0.444

$$$$
Pocket2Mol_68
     RDKit          3D

 19 20  0  0  0  0  0  0  0  0999 V2000
   39.8120   28.7870   50.3050 C   0  0  0  0  0  0  0  0  0  0  0  0
   40.2780   30.0050   50.3920 C   0  0  0  0  0  0  0  0  0  0  0  0
   40.1830   30.5710   51.6680 C   0  0  0  0  0  0  0  0  0  0  0  0
   39.5850   29.8260   52.5250 C   0  0  0  0  0  0  0  0  0  0  0  0
   39.1070   28.4940   52.3840 C   0  0  0  0  0  0  0  0  0  0  0  0
   39.1130   27.9780   51.2470 C   0  0  0  0  0  0  0  0  0  0  0  0
   38.2920   28.0600   53.4750 C   0  0  0  0  0  0  0  0  0  0  0  0
   38.4880   29.0540   54.5710 C   0  0  0  0  0  0  0  0  0  0  0  0
   39.4450   30.4320   53.9470 C   0  0  0  0  0  0  0  0  0  0  0  0
   39.9908   28.3012   49.3344 H   0  0  0  0  0  0  0  0  0  0  0  0
   40.7091   30.5406   49.5333 H   0  0  0  0  0  0  0  0  0  0  0  0
   40.5847   31.5649   51.9144 H   0  0  0  0  0  0  0  0  0  0  0  0
   38.6371   27.0169   51.0025 H   0  0  0  0  0  0  0  0  0  0  0  0
   37.2349   28.0316   53.1721 H   0  0  0  0  0  0  0  0  0  0  0  0
   38.5704   27.0472   53.8016 H   0  0  0  0  0  0  0  0  0  0  0  0
   37.5094   29.4138   54.9215 H   0  0  0  0  0  0  0  0  0  0  0  0
   39.0213   28.5815   55.4091 H   0  0  0  0  0  0  0  0  0  0  0  0
   38.8942   31.3841   53.9605 H   0  0  0  0  0  0  0  0  0  0  0  0
   40.3609   30.7176   54.4851 H   0  0  0  0  0  0  0  0  0  0  0  0
  1  2  2  0
  2  3  1  0
  3  4  2  0
  4  5  1  0
  5  6  2  0
  5  7  1  0
  7  8  1  0
  8  9  1  0
  6  1  1  0
  9  4  1  0
  1 10  1  0
  2 11  1  0
  3 12  1  0
  6 13  1  0
  7 14  1  0
  7 15  1  0
  8 16  1  0
  8 17  1  0
  9 18  1  0
  9 19  1  0
M  END
>  <docking_score>  (30) 
-6.57

>  <plif_similarity>  (30) 
0.333

$$$$
Pocket2Mol_69
     RDKit          3D

 15 16  0  0  0  0  0  0  0  0999 V2000
   40.3810   30.2890   51.2100 C   0  0  0  0  0  0  0  0  0  0  0  0
   40.1410   29.3670   50.3080 C   0  0  0  0  0  0  0  0  0  0  0  0
   39.3770   28.2180   50.6050 C   0  0  0  0  0  0  0  0  0  0  0  0
   38.7970   28.1550   51.8840 C   0  0  0  0  0  0  0  0  0  0  0  0
   39.0450   29.2680   52.7420 C   0  0  0  0  0  0  0  0  0  0  0  0
   39.7850   30.3670   52.4410 C   0  0  0  0  0  0  0  0  0  0  0  0
   38.2960   28.9670   54.0960 O   0  0  0  0  0  0  0  0  0  0  0  0
   37.5890   27.8110   53.7110 C   0  0  0  0  0  0  0  0  0  0  0  0
   38.1060   27.3900   52.5820 O   0  0  0  0  0  0  0  0  0  0  0  0
   41.1212   31.0625   50.9572 H   0  0  0  0  0  0  0  0  0  0  0  0
   40.5461   29.4928   49.2931 H   0  0  0  0  0  0  0  0  0  0  0  0
   39.2418   27.4103   49.8706 H   0  0  0  0  0  0  0  0  0  0  0  0
   39.8941   31.2292   53.1153 H   0  0  0  0  0  0  0  0  0  0  0  0
   37.6905   27.0342   54.4832 H   0  0  0  0  0  0  0  0  0  0  0  0
   36.5191   28.0347   53.5873 H   0  0  0  0  0  0  0  0  0  0  0  0
  1  2  2  0
  2  3  1  0
  3  4  2  0
  4  5  1  0
  5  6  2  0
  5  7  1  0
  7  8  1  0
  8  9  1  0
  6  1  1  0
  9  4  1  0
  1 10  1  0
  2 11  1  0
  3 12  1  0
  6 13  1  0
  8 14  1  0
  8 15  1  0
M  END
>  <docking_score>  (31) 
-5.998

>  <plif_similarity>  (31) 
0.333

$$$$
Pocket2Mol_71
     RDKit          3D

 17 17  0  0  0  0  0  0  0  0999 V2000
   40.3970   30.2520   50.2110 C   0  0  0  0  0  0  0  0  0  0  0  0
   39.9140   29.7060   51.5490 C   0  0  0  0  0  0  0  0  0  0  0  0
   39.8300   30.6230   52.5790 C   0  0  0  0  0  0  0  0  0  0  0  0
   39.3760   30.1390   53.6710 C   0  0  0  0  0  0  0  0  0  0  0  0
   38.9640   28.7880   53.8290 C   0  0  0  0  0  0  0  0  0  0  0  0
   38.4740   28.2510   55.0720 O   0  0  0  0  0  0  0  0  0  0  0  0
   39.0350   27.8850   52.7590 C   0  0  0  0  0  0  0  0  0  0  0  0
   39.4980   28.4750   51.6380 C   0  0  0  0  0  0  0  0  0  0  0  0
   39.6360   27.6190   50.5130 O   0  0  0  0  0  0  0  0  0  0  0  0
   41.1166   31.0655   50.3852 H   0  0  0  0  0  0  0  0  0  0  0  0
   40.8842   29.4473   49.6409 H   0  0  0  0  0  0  0  0  0  0  0  0
   39.5388   30.6374   49.6409 H   0  0  0  0  0  0  0  0  0  0  0  0
   40.1275   31.6762   52.4688 H   0  0  0  0  0  0  0  0  0  0  0  0
   39.2995   30.8080   54.5408 H   0  0  0  0  0  0  0  0  0  0  0  0
   39.0840   27.7540   55.6720 H   0  0  0  0  0  0  0  0  0  0  0  0
   38.7482   26.8251   52.8255 H   0  0  0  0  0  0  0  0  0  0  0  0
   39.9040   26.6740   50.6390 H   0  0  0  0  0  0  0  0  0  0  0  0
  1  2  1  0
  2  3  1  0
  3  4  2  0
  4  5  1  0
  5  6  1  0
  5  7  2  0
  7  8  1  0
  8  9  1  0
  8  2  2  0
  1 10  1  0
  1 11  1  0
  1 12  1  0
  3 13  1  0
  4 14  1  0
  6 15  1  0
  7 16  1  0
  9 17  1  0
M  END
>  <docking_score>  (32) 
-5.837

>  <plif_similarity>  (32) 
0.444

$$$$
Pocket2Mol_72
     RDKit          3D

 15 16  0  0  0  0  0  0  0  0999 V2000
   39.6830   30.6820   53.6010 C   0  0  0  0  0  0  0  0  0  0  0  0
   39.2710   30.3190   54.9070 C   0  0  0  0  0  0  0  0  0  0  0  0
   38.8010   28.8890   54.3880 C   0  0  0  0  0  0  0  0  0  0  0  0
   39.3000   28.7380   52.5340 C   0  0  0  0  0  0  0  0  0  0  0  0
   39.1760   27.8270   51.5780 C   0  0  0  0  0  0  0  0  0  0  0  0
   39.6500   28.2610   50.3610 C   0  0  0  0  0  0  0  0  0  0  0  0
   40.1230   29.4710   50.2260 C   0  0  0  0  0  0  0  0  0  0  0  0
   40.1270   30.4530   51.3270 C   0  0  0  0  0  0  0  0  0  0  0  0
   39.7500   30.0140   52.4360 C   0  0  0  0  0  0  0  0  0  0  0  0
   39.2744   30.8222   55.8852 H   0  0  0  0  0  0  0  0  0  0  0  0
   38.2828   28.1227   54.9832 H   0  0  0  0  0  0  0  0  0  0  0  0
   38.7404   26.8301   51.7406 H   0  0  0  0  0  0  0  0  0  0  0  0
   39.6303   27.5833   49.4948 H   0  0  0  0  0  0  0  0  0  0  0  0
   40.5354   29.7702   49.2511 H   0  0  0  0  0  0  0  0  0  0  0  0
   40.4395   31.4978   51.1828 H   0  0  0  0  0  0  0  0  0  0  0  0
  1  2  2  0
  2  3  1  0
  3  4  2  0
  4  5  1  0
  5  6  2  0
  6  7  1  0
  7  8  2  0
  8  9  1  0
  9  1  2  0
  9  4  1  0
  2 10  1  0
  3 11  1  0
  5 12  1  0
  6 13  1  0
  7 14  1  0
  8 15  1  0
M  END
>  <docking_score>  (33) 
-6.62

>  <plif_similarity>  (33) 
0.444

$$$$
Pocket2Mol_73
     RDKit          3D

 15 16  0  0  0  0  0  0  0  0999 V2000
   40.5670   30.2840   50.6710 C   0  0  0  0  0  0  0  0  0  0  0  0
   40.1620   30.6010   51.9840 C   0  0  0  0  0  0  0  0  0  0  0  0
   39.3860   29.6390   52.5110 C   0  0  0  0  0  0  0  0  0  0  0  0
   38.8420   29.4180   53.5920 N   0  0  0  0  0  0  0  0  0  0  0  0
   38.1700   28.1550   53.7470 C   0  0  0  0  0  0  0  0  0  0  0  0
   38.0610   27.2060   52.8800 N   0  0  0  0  0  0  0  0  0  0  0  0
   38.6660   27.4130   51.5760 C   0  0  0  0  0  0  0  0  0  0  0  0
   39.3580   28.3850   51.3930 C   0  0  0  0  0  0  0  0  0  0  0  0
   39.9930   28.9720   50.2650 C   0  0  0  0  0  0  0  0  0  0  0  0
   41.2119   30.9133   50.0400 H   0  0  0  0  0  0  0  0  0  0  0  0
   40.4465   31.5230   52.5121 H   0  0  0  0  0  0  0  0  0  0  0  0
   38.6544   27.6855   54.6159 H   0  0  0  0  0  0  0  0  0  0  0  0
   37.1306   28.5148   53.7343 H   0  0  0  0  0  0  0  0  0  0  0  0
   38.4954   26.6914   50.7634 H   0  0  0  0  0  0  0  0  0  0  0  0
   40.0507   28.5302   49.2593 H   0  0  0  0  0  0  0  0  0  0  0  0
  1  2  2  0
  2  3  1  0
  3  4  2  0
  4  5  1  0
  5  6  1  0
  6  7  2  0
  7  8  1  0
  8  9  2  0
  9  1  1  0
  8  3  1  0
  1 10  1  0
  2 11  1  0
  5 12  1  0
  5 13  1  0
  7 14  1  0
  9 15  1  0
M  END
>  <docking_score>  (34) 
-5.874

>  <plif_similarity>  (34) 
0.222

$$$$
Pocket2Mol_74
     RDKit          3D

 16 17  0  0  0  0  0  0  0  0999 V2000
   38.8190   29.7300   53.7770 C   0  0  0  0  0  0  0  0  0  0  0  0
   39.4020   29.6480   52.5670 C   0  0  0  0  0  0  0  0  0  0  0  0
   40.1590   30.4830   52.0270 C   0  0  0  0  0  0  0  0  0  0  0  0
   40.4290   30.3530   50.6610 C   0  0  0  0  0  0  0  0  0  0  0  0
   40.1550   29.1040   50.0040 C   0  0  0  0  0  0  0  0  0  0  0  0
   39.3920   28.1570   50.6630 C   0  0  0  0  0  0  0  0  0  0  0  0
   39.0500   28.5250   51.8900 C   0  0  0  0  0  0  0  0  0  0  0  0
   38.1220   27.5740   52.5690 N   0  0  0  0  0  0  0  0  0  0  0  0
   37.9050   28.4140   53.9880 C   0  0  0  0  0  0  0  0  0  0  0  0
   38.9431   30.5512   54.4982 H   0  0  0  0  0  0  0  0  0  0  0  0
   40.6028   31.3015   52.6128 H   0  0  0  0  0  0  0  0  0  0  0  0
   40.8470   31.1983   50.0947 H   0  0  0  0  0  0  0  0  0  0  0  0
   40.5452   28.9049   48.9950 H   0  0  0  0  0  0  0  0  0  0  0  0
   39.0988   27.1963   50.2147 H   0  0  0  0  0  0  0  0  0  0  0  0
   36.8483   28.6853   54.1288 H   0  0  0  0  0  0  0  0  0  0  0  0
   38.1811   27.8339   54.8809 H   0  0  0  0  0  0  0  0  0  0  0  0
  1  2  2  0
  2  3  1  0
  3  4  2  0
  4  5  1  0
  5  6  2  0
  6  7  1  0
  7  8  2  0
  8  9  1  0
  9  1  1  0
  7  2  1  0
  1 10  1  0
  3 11  1  0
  4 12  1  0
  5 13  1  0
  6 14  1  0
  9 15  1  0
  9 16  1  0
M  END
>  <docking_score>  (35) 
-6.274

>  <plif_similarity>  (35) 
0.444

$$$$
Pocket2Mol_78
     RDKit          3D

 14 14  0  0  0  0  0  0  0  0999 V2000
   39.8640   30.7520   54.7450 O   0  0  0  0  0  0  0  0  0  0  0  0
   39.1170   29.9400   54.0300 C   0  0  0  0  0  0  0  0  0  0  0  0
   38.1990   29.1910   54.5340 O   0  0  0  0  0  0  0  0  0  0  0  0
   39.4560   29.6880   52.6860 C   0  0  0  0  0  0  0  0  0  0  0  0
   40.1340   30.5350   51.8950 C   0  0  0  0  0  0  0  0  0  0  0  0
   40.4330   30.2110   50.6100 C   0  0  0  0  0  0  0  0  0  0  0  0
   39.9120   28.9040   50.3100 C   0  0  0  0  0  0  0  0  0  0  0  0
   39.3400   27.9760   50.9840 C   0  0  0  0  0  0  0  0  0  0  0  0
   39.0100   28.1510   52.1760 C   0  0  0  0  0  0  0  0  0  0  0  0
   40.4531   31.5089   52.2947 H   0  0  0  0  0  0  0  0  0  0  0  0
   40.9880   30.8497   49.9071 H   0  0  0  0  0  0  0  0  0  0  0  0
   40.0335   28.6377   49.2497 H   0  0  0  0  0  0  0  0  0  0  0  0
   39.1359   27.0076   50.5039 H   0  0  0  0  0  0  0  0  0  0  0  0
   38.4998   27.4046   52.8026 H   0  0  0  0  0  0  0  0  0  0  0  0
  1  2  2  0
  2  3  1  0
  2  4  1  0
  4  5  2  0
  5  6  1  0
  6  7  2  0
  7  8  1  0
  8  9  2  0
  9  4  1  0
  5 10  1  0
  6 11  1  0
  7 12  1  0
  8 13  1  0
  9 14  1  0
M  CHG  1   3  -1
M  END
>  <docking_score>  (36) 
-5.946

>  <plif_similarity>  (36) 
0.444

$$$$
Pocket2Mol_79
     RDKit          3D

 17 18  0  0  0  0  0  0  0  0999 V2000
   39.7120   28.5080   50.3910 C   0  0  0  0  0  0  0  0  0  0  0  0
   39.2240   27.9510   51.5290 C   0  0  0  0  0  0  0  0  0  0  0  0
   39.2650   28.7590   52.6100 C   0  0  0  0  0  0  0  0  0  0  0  0
   38.7670   28.8460   54.4280 C   0  0  0  0  0  0  0  0  0  0  0  0
   39.2240   30.2470   55.0070 C   0  0  0  0  0  0  0  0  0  0  0  0
   39.6730   30.6660   53.7340 C   0  0  0  0  0  0  0  0  0  0  0  0
   39.7360   30.0300   52.5500 C   0  0  1  0  0  0  0  0  0  0  0  0
   40.1260   30.4930   51.4560 C   0  0  0  0  0  0  0  0  0  0  0  0
   40.1490   29.6630   50.3170 C   0  0  0  0  0  0  0  0  0  0  0  0
   39.7193   27.8942   49.4782 H   0  0  0  0  0  0  0  0  0  0  0  0
   38.8277   26.9256   51.5672 H   0  0  0  0  0  0  0  0  0  0  0  0
   38.2470   28.0566   54.9906 H   0  0  0  0  0  0  0  0  0  0  0  0
   39.2011   30.7104   56.0044 H   0  0  0  0  0  0  0  0  0  0  0  0
   40.0383   31.7032   53.7061 H   0  0  0  0  0  0  0  0  0  0  0  0
   38.7100   30.3540   52.3214 H   0  0  0  0  0  0  0  0  0  0  0  0
   40.4493   31.5419   51.3828 H   0  0  0  0  0  0  0  0  0  0  0  0
   40.5538   30.0406   49.3664 H   0  0  0  0  0  0  0  0  0  0  0  0
  1  2  2  0
  2  3  1  0
  3  4  2  0
  4  5  1  0
  5  6  2  0
  6  7  1  0
  7  8  1  0
  8  9  2  0
  9  1  1  0
  7  3  1  0
  1 10  1  0
  2 11  1  0
  4 12  1  0
  5 13  1  0
  6 14  1  0
  7 15  1  6
  8 16  1  0
  9 17  1  0
M  END
>  <docking_score>  (37) 
-6.643

>  <plif_similarity>  (37) 
0.222

$$$$
Pocket2Mol_80
     RDKit          3D

 17 17  0  0  0  0  0  0  0  0999 V2000
   40.7570   30.3790   49.9370 C   0  0  0  0  0  0  0  0  0  0  0  0
   40.0090   29.5080   50.9390 C   0  0  0  0  0  0  0  0  0  0  0  0
   39.8090   30.0620   52.1890 C   0  0  0  0  0  0  0  0  0  0  0  0
   39.1360   29.3230   52.9850 C   0  0  0  0  0  0  0  0  0  0  0  0
   38.6920   28.0470   52.7770 C   0  0  0  0  0  0  0  0  0  0  0  0
   37.9960   27.2410   53.7330 C   0  0  0  0  0  0  0  0  0  0  0  0
   36.9530   27.1100   53.6280 O   0  0  0  0  0  0  0  0  0  0  0  0
   38.9220   27.5860   51.5400 C   0  0  0  0  0  0  0  0  0  0  0  0
   39.5590   28.2720   50.7740 C   0  0  0  0  0  0  0  0  0  0  0  0
   41.3813   31.1059   50.4773 H   0  0  0  0  0  0  0  0  0  0  0  0
   41.3962   29.7448   49.3052 H   0  0  0  0  0  0  0  0  0  0  0  0
   40.0335   30.9151   49.3052 H   0  0  0  0  0  0  0  0  0  0  0  0
   40.1951   31.0519   52.4737 H   0  0  0  0  0  0  0  0  0  0  0  0
   38.8825   29.7688   53.9581 H   0  0  0  0  0  0  0  0  0  0  0  0
   38.5382   26.7656   54.5637 H   0  0  0  0  0  0  0  0  0  0  0  0
   38.5392   26.6033   51.2274 H   0  0  0  0  0  0  0  0  0  0  0  0
   39.7979   27.8058   49.8067 H   0  0  0  0  0  0  0  0  0  0  0  0
  1  2  1  0
  2  3  1  0
  3  4  2  0
  4  5  1  0
  5  6  1  0
  6  7  2  0
  5  8  2  0
  8  9  1  0
  9  2  2  0
  1 10  1  0
  1 11  1  0
  1 12  1  0
  3 13  1  0
  4 14  1  0
  6 15  1  0
  8 16  1  0
  9 17  1  0
M  END
>  <docking_score>  (38) 
-6.371

>  <plif_similarity>  (38) 
0.444

$$$$
Pocket2Mol_81
     RDKit          3D

 15 16  0  0  0  0  0  0  0  0999 V2000
   40.3870   30.2840   51.0600 C   0  0  0  0  0  0  0  0  0  0  0  0
   40.1000   29.1580   50.3000 C   0  0  0  0  0  0  0  0  0  0  0  0
   39.2940   28.1910   50.7390 C   0  0  0  0  0  0  0  0  0  0  0  0
   38.8900   28.3570   51.9910 C   0  0  0  0  0  0  0  0  0  0  0  0
   37.9660   27.4530   52.8130 N   0  0  0  0  0  0  0  0  0  0  0  0
   37.7470   28.0070   54.0920 N   0  0  0  0  0  0  0  0  0  0  0  0
   38.5050   29.2670   54.0140 C   0  0  0  0  0  0  0  0  0  0  0  0
   39.1230   29.4020   52.8260 C   0  0  0  0  0  0  0  0  0  0  0  0
   39.8150   30.3650   52.4320 C   0  0  0  0  0  0  0  0  0  0  0  0
   41.0179   31.0917   50.6604 H   0  0  0  0  0  0  0  0  0  0  0  0
   40.5528   29.0605   49.3023 H   0  0  0  0  0  0  0  0  0  0  0  0
   38.9918   27.3339   50.1193 H   0  0  0  0  0  0  0  0  0  0  0  0
   37.2000   27.6270   54.8780 H   0  0  0  0  0  0  0  0  0  0  0  0
   38.5594   30.0066   54.8264 H   0  0  0  0  0  0  0  0  0  0  0  0
   39.9947   31.2395   53.0746 H   0  0  0  0  0  0  0  0  0  0  0  0
  1  2  1  0
  2  3  2  0
  3  4  1  0
  4  5  2  0
  5  6  1  0
  6  7  1  0
  7  8  2  0
  8  9  1  0
  9  1  2  0
  8  4  1  0
  1 10  1  0
  2 11  1  0
  3 12  1  0
  6 13  1  0
  7 14  1  0
  9 15  1  0
M  END
>  <docking_score>  (39) 
-6.068

>  <plif_similarity>  (39) 
0.333

$$$$
Pocket2Mol_82
     RDKit          3D

 16 16  0  0  0  0  0  0  0  0999 V2000
   36.9310   27.7820   53.0900 N   0  0  0  0  0  0  0  0  0  0  0  0
   38.1790   27.8960   53.1400 C   0  0  0  0  0  0  0  0  0  0  0  0
   38.7110   27.0550   54.1610 O   0  0  0  0  0  0  0  0  0  0  0  0
   38.9540   28.5430   52.3690 C   0  0  0  0  0  0  0  0  0  0  0  0
   39.2160   28.0370   51.2120 C   0  0  0  0  0  0  0  0  0  0  0  0
   39.9350   28.9510   50.2860 C   0  0  0  0  0  0  0  0  0  0  0  0
   40.3560   30.1210   50.5960 C   0  0  0  0  0  0  0  0  0  0  0  0
   40.1520   30.5690   51.8880 C   0  0  0  0  0  0  0  0  0  0  0  0
   39.4270   29.7140   52.7900 C   0  0  0  0  0  0  0  0  0  0  0  0
   36.4370   27.2170   53.7940 H   0  0  0  0  0  0  0  0  0  0  0  0
   36.4010   28.2540   52.3430 H   0  0  0  0  0  0  0  0  0  0  0  0
   38.9305   27.0120   50.9330 H   0  0  0  0  0  0  0  0  0  0  0  0
   40.1189   28.5975   49.2607 H   0  0  0  0  0  0  0  0  0  0  0  0
   40.8663   30.7523   49.8537 H   0  0  0  0  0  0  0  0  0  0  0  0
   40.5319   31.5479   52.2159 H   0  0  0  0  0  0  0  0  0  0  0  0
   39.2630   30.0290   53.8311 H   0  0  0  0  0  0  0  0  0  0  0  0
  1  2  1  0
  2  3  2  0
  2  4  1  0
  4  5  2  0
  5  6  1  0
  6  7  2  0
  7  8  1  0
  8  9  2  0
  9  4  1  0
  1 10  1  0
  1 11  1  0
  5 12  1  0
  6 13  1  0
  7 14  1  0
  8 15  1  0
  9 16  1  0
M  END
>  <docking_score>  (40) 
-6.261

>  <plif_similarity>  (40) 
0.444

$$$$
Pocket2Mol_83
     RDKit          3D

 16 17  0  0  0  0  0  0  0  0999 V2000
   40.4350   30.4630   51.2270 C   0  0  0  0  0  0  0  0  0  0  0  0
   40.2620   29.6070   50.1950 C   0  0  0  0  0  0  0  0  0  0  0  0
   39.5150   28.5330   50.6040 C   0  0  0  0  0  0  0  0  0  0  0  0
   38.9110   28.3850   51.7380 C   0  0  0  0  0  0  0  0  0  0  0  0
   38.0420   27.5400   52.3810 N   0  0  0  0  0  0  0  0  0  0  0  0
   37.7820   28.1690   53.5490 C   0  0  0  0  0  0  0  0  0  0  0  0
   38.4720   29.1140   53.9260 C   0  0  0  0  0  0  0  0  0  0  0  0
   39.1940   29.3190   52.6790 C   0  0  0  0  0  0  0  0  0  0  0  0
   39.8230   30.4460   52.4380 C   0  0  0  0  0  0  0  0  0  0  0  0
   41.1613   31.2731   51.0651 H   0  0  0  0  0  0  0  0  0  0  0  0
   40.6607   29.7508   49.1799 H   0  0  0  0  0  0  0  0  0  0  0  0
   39.4184   27.7040   49.8874 H   0  0  0  0  0  0  0  0  0  0  0  0
   37.6730   26.6380   52.0510 H   0  0  0  0  0  0  0  0  0  0  0  0
   36.9406   27.8302   54.1713 H   0  0  0  0  0  0  0  0  0  0  0  0
   38.5262   29.6358   54.8929 H   0  0  0  0  0  0  0  0  0  0  0  0
   39.8510   31.2888   53.1443 H   0  0  0  0  0  0  0  0  0  0  0  0
  1  2  2  0
  2  3  1  0
  3  4  2  0
  4  5  1  0
  5  6  1  0
  6  7  2  0
  7  8  1  0
  8  9  2  0
  9  1  1  0
  8  4  1  0
  1 10  1  0
  2 11  1  0
  3 12  1  0
  5 13  1  0
  6 14  1  0
  7 15  1  0
  9 16  1  0
M  END
>  <docking_score>  (41) 
-6.302

>  <plif_similarity>  (41) 
0.333

$$$$
Pocket2Mol_86
     RDKit          3D

 17 17  0  0  0  0  0  0  0  0999 V2000
   40.8810   30.4110   50.2500 C   0  0  0  0  0  0  0  0  0  0  0  0
   39.9310   29.5760   51.0510 C   0  0  0  0  0  0  0  0  0  0  0  0
   39.6110   28.3550   50.6020 C   0  0  0  0  0  0  0  0  0  0  0  0
   38.8310   27.5380   51.3650 C   0  0  0  0  0  0  0  0  0  0  0  0
   38.4110   27.9170   52.6000 C   0  0  0  0  0  0  0  0  0  0  0  0
   37.6180   27.1610   53.4380 O   0  0  0  0  0  0  0  0  0  0  0  0
   38.9430   29.2460   53.0260 C   0  0  0  0  0  0  0  0  0  0  0  0
   38.3850   29.6410   54.3450 O   0  0  0  0  0  0  0  0  0  0  0  0
   39.7140   30.0760   52.2570 C   0  0  0  0  0  0  0  0  0  0  0  0
   41.5304   30.9818   50.9300 H   0  0  0  0  0  0  0  0  0  0  0  0
   41.4982   29.7577   49.6157 H   0  0  0  0  0  0  0  0  0  0  0  0
   40.3123   31.1069   49.6157 H   0  0  0  0  0  0  0  0  0  0  0  0
   39.9760   28.0134   49.6222 H   0  0  0  0  0  0  0  0  0  0  0  0
   38.5361   26.5533   50.9733 H   0  0  0  0  0  0  0  0  0  0  0  0
   36.6390   27.1230   53.2920 H   0  0  0  0  0  0  0  0  0  0  0  0
   38.1960   28.9500   55.0290 H   0  0  0  0  0  0  0  0  0  0  0  0
   40.1067   31.0442   52.6010 H   0  0  0  0  0  0  0  0  0  0  0  0
  1  2  1  0
  2  3  1  0
  3  4  2  0
  4  5  1  0
  5  6  1  0
  5  7  2  0
  7  8  1  0
  7  9  1  0
  9  2  2  0
  1 10  1  0
  1 11  1  0
  1 12  1  0
  3 13  1  0
  4 14  1  0
  6 15  1  0
  8 16  1  0
  9 17  1  0
M  END
>  <docking_score>  (42) 
-5.853

>  <plif_similarity>  (42) 
0.444

$$$$
Pocket2Mol_87
     RDKit          3D

 18 18  0  0  0  0  0  0  0  0999 V2000
   38.9680   27.0040   54.2320 C   0  0  0  0  0  0  0  0  0  0  0  0
   38.2180   27.6890   53.2790 C   0  0  0  0  0  0  0  0  0  0  0  0
   36.9040   27.7050   53.2800 N   0  0  0  0  0  0  0  0  0  0  0  0
   38.9240   28.5950   52.4620 C   0  0  0  0  0  0  0  0  0  0  0  0
   39.4060   29.7790   52.8710 C   0  0  0  0  0  0  0  0  0  0  0  0
   40.0890   30.5910   52.0230 C   0  0  0  0  0  0  0  0  0  0  0  0
   40.3300   30.0480   50.6950 C   0  0  0  0  0  0  0  0  0  0  0  0
   39.8880   28.7120   50.3600 C   0  0  0  0  0  0  0  0  0  0  0  0
   39.1840   27.8650   51.0500 C   0  0  0  0  0  0  0  0  0  0  0  0
   38.6415   27.3022   55.2392 H   0  0  0  0  0  0  0  0  0  0  0  0
   38.8217   25.9212   54.1047 H   0  0  0  0  0  0  0  0  0  0  0  0
   40.0331   27.2476   54.1047 H   0  0  0  0  0  0  0  0  0  0  0  0
   36.3810   27.0460   53.8750 H   0  0  0  0  0  0  0  0  0  0  0  0
   39.2450   30.0974   53.9115 H   0  0  0  0  0  0  0  0  0  0  0  0
   40.4364   31.5915   52.3202 H   0  0  0  0  0  0  0  0  0  0  0  0
   40.8512   30.6567   49.9415 H   0  0  0  0  0  0  0  0  0  0  0  0
   40.1960   28.3573   49.3653 H   0  0  0  0  0  0  0  0  0  0  0  0
   38.8408   26.8676   50.7379 H   0  0  0  0  0  0  0  0  0  0  0  0
  1  2  1  0
  2  3  2  3
  2  4  1  0
  4  5  2  0
  5  6  1  0
  6  7  2  0
  7  8  1  0
  8  9  2  0
  9  4  1  0
  1 10  1  0
  1 11  1  0
  1 12  1  0
  3 13  1  0
  5 14  1  0
  6 15  1  0
  7 16  1  0
  8 17  1  0
  9 18  1  0
M  END
>  <docking_score>  (43) 
-6.37

>  <plif_similarity>  (43) 
0.444

$$$$
Pocket2Mol_89
     RDKit          3D

 17 18  0  0  0  0  0  0  0  0999 V2000
   38.9890   29.5340   54.9510 C   0  0  0  0  0  0  0  0  0  0  0  0
   39.6220   30.4860   54.0600 C   0  0  0  0  0  0  0  0  0  0  0  0
   39.5480   30.0080   52.7150 C   0  0  0  0  0  0  0  0  0  0  0  0
   40.1280   30.5290   51.7400 C   0  0  0  0  0  0  0  0  0  0  0  0
   40.0920   29.6830   50.5930 C   0  0  0  0  0  0  0  0  0  0  0  0
   39.7220   28.4380   50.4510 C   0  0  0  0  0  0  0  0  0  0  0  0
   39.1610   27.8640   51.5820 C   0  0  0  0  0  0  0  0  0  0  0  0
   39.1440   28.6480   52.6150 C   0  0  0  0  0  0  0  0  0  0  0  0
   38.5290   28.0430   53.9050 C   0  0  0  0  0  0  0  0  0  0  0  0
   38.8124   29.6600   56.0294 H   0  0  0  0  0  0  0  0  0  0  0  0
   40.0884   31.4323   54.3715 H   0  0  0  0  0  0  0  0  0  0  0  0
   40.6076   31.5187   51.7630 H   0  0  0  0  0  0  0  0  0  0  0  0
   40.4361   30.1626   49.6648 H   0  0  0  0  0  0  0  0  0  0  0  0
   39.8459   27.8874   49.5068 H   0  0  0  0  0  0  0  0  0  0  0  0
   38.7664   26.8374   51.6012 H   0  0  0  0  0  0  0  0  0  0  0  0
   37.4438   27.8775   53.8348 H   0  0  0  0  0  0  0  0  0  0  0  0
   38.8621   27.0467   54.2312 H   0  0  0  0  0  0  0  0  0  0  0  0
  1  2  2  0
  2  3  1  0
  3  4  2  0
  4  5  1  0
  5  6  2  0
  6  7  1  0
  7  8  2  0
  8  9  1  0
  9  1  1  0
  8  3  1  0
  1 10  1  0
  2 11  1  0
  4 12  1  0
  5 13  1  0
  6 14  1  0
  7 15  1  0
  9 16  1  0
  9 17  1  0
M  END
>  <docking_score>  (44) 
-6.585

>  <plif_similarity>  (44) 
0.444

$$$$
Pocket2Mol_8
     RDKit          3D

 12 12  0  0  0  0  0  0  0  0999 V2000
   40.1680   29.2430   50.0680 C   0  0  0  0  0  0  0  0  0  0  0  0
   39.6060   28.1670   50.6760 C   0  0  0  0  0  0  0  0  0  0  0  0
   39.1650   28.4320   51.8850 C   0  0  0  0  0  0  0  0  0  0  0  0
   39.4160   29.5560   52.6120 C   0  0  0  0  0  0  0  0  0  0  0  0
   40.0670   30.4850   51.9140 C   0  0  0  0  0  0  0  0  0  0  0  0
   40.5400   30.4150   50.6310 C   0  0  0  0  0  0  0  0  0  0  0  0
   40.3419   29.1502   48.9858 H   0  0  0  0  0  0  0  0  0  0  0  0
   39.5279   27.1759   50.2052 H   0  0  0  0  0  0  0  0  0  0  0  0
   38.5289   27.6691   52.3577 H   0  0  0  0  0  0  0  0  0  0  0  0
   39.1138   29.6829   53.6620 H   0  0  0  0  0  0  0  0  0  0  0  0
   40.2488   31.4349   52.4380 H   0  0  0  0  0  0  0  0  0  0  0  0
   41.1338   31.1954   50.1327 H   0  0  0  0  0  0  0  0  0  0  0  0
  1  2  1  0
  2  3  2  0
  3  4  1  0
  4  5  2  0
  5  6  1  0
  6  1  2  0
  1  7  1  0
  2  8  1  0
  3  9  1  0
  4 10  1  0
  5 11  1  0
  6 12  1  0
M  END
>  <docking_score>  (45) 
-5.026

>  <plif_similarity>  (45) 
0.444

$$$$
Pocket2Mol_91
     RDKit          3D

 14 15  0  0  0  0  0  0  0  0999 V2000
   37.9010   27.9660   53.6720 C   0  0  0  0  0  0  0  0  0  0  0  0
   38.8490   29.6030   53.8130 C   0  0  0  0  0  0  0  0  0  0  0  0
   39.3360   29.5660   52.4910 C   0  0  0  0  0  0  0  0  0  0  0  0
   40.1440   30.4900   51.9470 C   0  0  0  0  0  0  0  0  0  0  0  0
   40.5820   30.3740   50.6660 C   0  0  0  0  0  0  0  0  0  0  0  0
   40.1720   29.2580   49.9390 C   0  0  0  0  0  0  0  0  0  0  0  0
   39.4350   28.2200   50.5110 C   0  0  0  0  0  0  0  0  0  0  0  0
   39.0140   28.3690   51.7520 C   0  0  0  0  0  0  0  0  0  0  0  0
   38.2370   27.4340   52.3730 N   0  0  0  0  0  0  0  0  0  0  0  0
   38.9741   30.3242   54.6341 H   0  0  0  0  0  0  0  0  0  0  0  0
   40.4569   31.3560   52.5488 H   0  0  0  0  0  0  0  0  0  0  0  0
   41.2379   31.1351   50.2181 H   0  0  0  0  0  0  0  0  0  0  0  0
   40.4394   29.1928   48.8740 H   0  0  0  0  0  0  0  0  0  0  0  0
   39.2118   27.3045   49.9435 H   0  0  0  0  0  0  0  0  0  0  0  0
  1  2  2  0
  2  3  1  0
  3  4  2  0
  4  5  1  0
  5  6  2  0
  6  7  1  0
  7  8  2  0
  8  9  1  0
  9  1  2  0
  8  3  1  0
  2 10  1  0
  4 11  1  0
  5 12  1  0
  6 13  1  0
  7 14  1  0
M  END
>  <docking_score>  (46) 
-6.294

>  <plif_similarity>  (46) 
0.444

$$$$
Pocket2Mol_92
     RDKit          3D

 18 19  0  0  0  0  0  0  0  0999 V2000
   40.2370   30.1080   50.3680 C   0  0  0  0  0  0  0  0  0  0  0  0
   39.8440   28.8200   50.2760 C   0  0  0  0  0  0  0  0  0  0  0  0
   39.4350   28.1770   51.3470 C   0  0  0  0  0  0  0  0  0  0  0  0
   39.3400   28.7720   52.6860 C   0  0  0  0  0  0  0  0  0  0  0  0
   38.9020   28.0240   53.7220 C   0  0  0  0  0  0  0  0  0  0  0  0
   38.8990   28.5920   54.9040 C   0  0  0  0  0  0  0  0  0  0  0  0
   39.3090   29.9440   55.1340 C   0  0  0  0  0  0  0  0  0  0  0  0
   39.6940   30.5920   53.9680 C   0  0  0  0  0  0  0  0  0  0  0  0
   39.7210   30.0660   52.8340 C   0  0  0  0  0  0  0  0  0  0  0  0
   40.1390   30.6210   51.6820 C   0  0  0  0  0  0  0  0  0  0  0  0
   40.5958   30.6967   49.5109 H   0  0  0  0  0  0  0  0  0  0  0  0
   39.8660   28.3075   49.3029 H   0  0  0  0  0  0  0  0  0  0  0  0
   39.1444   27.1223   51.2325 H   0  0  0  0  0  0  0  0  0  0  0  0
   38.5636   26.9869   53.5808 H   0  0  0  0  0  0  0  0  0  0  0  0
   38.5630   27.9969   55.7659 H   0  0  0  0  0  0  0  0  0  0  0  0
   39.3181   30.4180   56.1266 H   0  0  0  0  0  0  0  0  0  0  0  0
   39.9978   31.6462   54.0478 H   0  0  0  0  0  0  0  0  0  0  0  0
   40.4647   31.6671   51.7805 H   0  0  0  0  0  0  0  0  0  0  0  0
  1  2  2  0
  2  3  1  0
  3  4  2  0
  4  5  1  0
  5  6  2  0
  6  7  1  0
  7  8  2  0
  8  9  1  0
  9 10  2  0
 10  1  1  0
  9  4  1  0
  1 11  1  0
  2 12  1  0
  3 13  1  0
  5 14  1  0
  6 15  1  0
  7 16  1  0
  8 17  1  0
 10 18  1  0
M  END
>  <docking_score>  (47) 
-7.187

>  <plif_similarity>  (47) 
0.444

$$$$
Pocket2Mol_93
     RDKit          3D

 17 18  0  0  0  0  0  0  0  0999 V2000
   40.3550   30.4180   50.9920 C   0  0  0  0  0  0  0  0  0  0  0  0
   40.1050   29.2890   50.2280 C   0  0  0  0  0  0  0  0  0  0  0  0
   39.3210   28.2270   50.6940 C   0  0  0  0  0  0  0  0  0  0  0  0
   38.9320   28.4080   51.9490 C   0  0  0  0  0  0  0  0  0  0  0  0
   38.0930   27.2960   52.4870 N   0  0  0  0  0  0  0  0  0  0  0  0
   37.5790   27.3890   53.6920 C   0  0  0  0  0  0  0  0  0  0  0  0
   37.7700   28.3560   54.5000 C   0  0  0  0  0  0  0  0  0  0  0  0
   38.5670   29.3430   53.9640 C   0  0  0  0  0  0  0  0  0  0  0  0
   39.1680   29.4650   52.7660 C   0  0  0  0  0  0  0  0  0  0  0  0
   39.8470   30.4290   52.3490 C   0  0  0  0  0  0  0  0  0  0  0  0
   40.9166   31.2716   50.5845 H   0  0  0  0  0  0  0  0  0  0  0  0
   40.5383   29.2251   49.2190 H   0  0  0  0  0  0  0  0  0  0  0  0
   39.0584   27.3458   50.0902 H   0  0  0  0  0  0  0  0  0  0  0  0
   36.9319   26.5666   54.0310 H   0  0  0  0  0  0  0  0  0  0  0  0
   37.3451   28.3977   55.5138 H   0  0  0  0  0  0  0  0  0  0  0  0
   38.7459   30.1904   54.6421 H   0  0  0  0  0  0  0  0  0  0  0  0
   40.0579   31.2824   53.0102 H   0  0  0  0  0  0  0  0  0  0  0  0
  1  2  2  0
  2  3  1  0
  3  4  2  0
  4  5  1  0
  5  6  2  0
  6  7  1  0
  7  8  2  0
  8  9  1  0
  9 10  2  0
 10  1  1  0
  9  4  1  0
  1 11  1  0
  2 12  1  0
  3 13  1  0
  6 14  1  0
  7 15  1  0
  8 16  1  0
 10 17  1  0
M  END
>  <docking_score>  (48) 
-6.78

>  <plif_similarity>  (48) 
0.444

$$$$
Pocket2Mol_94
     RDKit          3D

 16 17  0  0  0  0  0  0  0  0999 V2000
   38.2520   27.6150   55.6050 O   0  0  0  0  0  0  0  0  0  0  0  0
   38.7820   28.4530   54.6170 C   0  0  0  0  0  0  0  0  0  0  0  0
   39.1180   29.7500   54.8960 C   0  0  0  0  0  0  0  0  0  0  0  0
   39.6620   30.5240   53.6660 C   0  0  0  0  0  0  0  0  0  0  0  0
   39.6880   29.9660   52.5470 C   0  0  0  0  0  0  0  0  0  0  0  0
   39.3020   28.6690   52.4360 C   0  0  0  0  0  0  0  0  0  0  0  0
   38.8880   27.8430   53.3870 C   0  0  0  0  0  0  0  0  0  0  0  0
   39.7580   28.5280   50.5700 C   0  0  0  0  0  0  0  0  0  0  0  0
   40.2060   29.9700   50.0650 C   0  0  0  0  0  0  0  0  0  0  0  0
   40.1100   30.4860   51.3810 C   0  0  0  0  0  0  0  0  0  0  0  0
   38.6390   26.7140   55.7480 H   0  0  0  0  0  0  0  0  0  0  0  0
   39.0127   30.1997   55.8943 H   0  0  0  0  0  0  0  0  0  0  0  0
   40.0226   31.5572   53.7776 H   0  0  0  0  0  0  0  0  0  0  0  0
   38.6540   26.7825   53.2119 H   0  0  0  0  0  0  0  0  0  0  0  0
   40.4798   30.3946   49.0879 H   0  0  0  0  0  0  0  0  0  0  0  0
   40.4515   31.5281   51.4666 H   0  0  0  0  0  0  0  0  0  0  0  0
  1  2  1  0
  2  3  1  0
  3  4  2  0
  4  5  1  0
  5  6  1  0
  6  7  1  0
  6  8  2  0
  8  9  2  0
  9 10  1  0
  7  2  2  0
 10  5  2  0
  1 11  1  0
  3 12  1  0
  4 13  1  0
  7 14  1  0
  9 15  1  0
 10 16  1  0
M  END
>  <docking_score>  (49) 
-6.577

>  <plif_similarity>  (49) 
0.222

$$$$
Pocket2Mol_96
     RDKit          3D

 18 19  0  0  0  0  0  0  0  0999 V2000
   39.5500   30.6650   54.4190 O   0  0  0  0  0  0  0  0  0  0  0  0
   39.2110   29.6570   53.6900 C   0  0  0  0  0  0  0  0  0  0  0  0
   38.6940   28.4820   54.2280 N   0  0  0  0  0  0  0  0  0  0  0  0
   38.4490   27.3970   53.2330 C   0  0  0  0  0  0  0  0  0  0  0  0
   38.8090   27.5310   51.7030 C   0  0  0  0  0  0  0  0  0  0  0  0
   39.3260   28.4880   51.5490 N   0  0  0  0  0  0  0  0  0  0  0  0
   39.9030   28.9110   50.3060 C   0  0  0  0  0  0  0  0  0  0  0  0
   40.4250   30.1180   50.2650 C   0  0  0  0  0  0  0  0  0  0  0  0
   40.1250   30.4850   51.5220 C   0  0  0  0  0  0  0  0  0  0  0  0
   39.6310   29.6300   52.3050 C   0  0  0  0  0  0  0  0  0  0  0  0
   38.4970   28.3710   55.2320 H   0  0  0  0  0  0  0  0  0  0  0  0
   39.0046   26.5208   53.5985 H   0  0  0  0  0  0  0  0  0  0  0  0
   37.3497   27.3781   53.1974 H   0  0  0  0  0  0  0  0  0  0  0  0
   39.4662   26.7017   51.4024 H   0  0  0  0  0  0  0  0  0  0  0  0
   37.8925   27.4958   51.0957 H   0  0  0  0  0  0  0  0  0  0  0  0
   39.9089   28.2538   49.4239 H   0  0  0  0  0  0  0  0  0  0  0  0
   40.9429   30.6561   49.4574 H   0  0  0  0  0  0  0  0  0  0  0  0
   40.3076   31.5150   51.8622 H   0  0  0  0  0  0  0  0  0  0  0  0
  1  2  2  0
  2  3  1  0
  3  4  1  0
  4  5  1  0
  5  6  1  0
  6  7  1  0
  7  8  2  0
  8  9  1  0
  9 10  2  0
 10  2  1  0
 10  6  1  0
  3 11  1  0
  4 12  1  0
  4 13  1  0
  5 14  1  0
  5 15  1  0
  7 16  1  0
  8 17  1  0
  9 18  1  0
M  END
>  <docking_score>  (50) 
-5.763

>  <plif_similarity>  (50) 
0.444

$$$$
Pocket2Mol_97
     RDKit          3D

 17 18  0  0  0  0  0  0  0  0999 V2000
   40.2090   29.7870   50.3760 C   0  0  0  0  0  0  0  0  0  0  0  0
   39.7390   28.5750   50.3870 C   0  0  0  0  0  0  0  0  0  0  0  0
   39.2000   27.9810   51.4810 C   0  0  0  0  0  0  0  0  0  0  0  0
   39.2090   28.7450   52.5950 C   0  0  0  0  0  0  0  0  0  0  0  0
   38.6880   28.2880   53.8710 C   0  0  0  0  0  0  0  0  0  0  0  0
   38.6230   28.8980   54.9710 N   0  0  0  0  0  0  0  0  0  0  0  0
   39.0930   30.1380   55.0460 C   0  0  0  0  0  0  0  0  0  0  0  0
   39.5960   30.6010   53.8080 C   0  0  0  0  0  0  0  0  0  0  0  0
   39.6980   30.0110   52.6040 C   0  0  0  0  0  0  0  0  0  0  0  0
   40.1360   30.5110   51.5450 C   0  0  0  0  0  0  0  0  0  0  0  0
   40.6494   30.2188   49.4652 H   0  0  0  0  0  0  0  0  0  0  0  0
   39.7809   27.9961   49.4526 H   0  0  0  0  0  0  0  0  0  0  0  0
   38.7892   26.9607   51.4625 H   0  0  0  0  0  0  0  0  0  0  0  0
   38.2933   27.2613   53.8779 H   0  0  0  0  0  0  0  0  0  0  0  0
   39.0912   30.7378   55.9681 H   0  0  0  0  0  0  0  0  0  0  0  0
   39.9733   31.6339   53.8350 H   0  0  0  0  0  0  0  0  0  0  0  0
   40.4724   31.5583   51.5472 H   0  0  0  0  0  0  0  0  0  0  0  0
  1  2  1  0
  2  3  2  0
  3  4  1  0
  4  5  2  0
  5  6  1  0
  6  7  2  0
  7  8  1  0
  8  9  2  0
  9 10  1  0
 10  1  2  0
  9  4  1  0
  1 11  1  0
  2 12  1  0
  3 13  1  0
  5 14  1  0
  7 15  1  0
  8 16  1  0
 10 17  1  0
M  END
>  <docking_score>  (51) 
-6.755

>  <plif_similarity>  (51) 
0.444

$$$$
Pocket2Mol_98
     RDKit          3D

 18 19  0  0  0  0  0  0  0  0999 V2000
   40.4660   30.0140   49.9770 C   0  0  0  0  0  0  0  0  0  0  0  0
   39.8480   29.7930   51.2710 C   0  0  0  0  0  0  0  0  0  0  0  0
   40.0410   30.5750   52.3390 C   0  0  0  0  0  0  0  0  0  0  0  0
   39.4260   30.3060   53.5680 C   0  0  0  0  0  0  0  0  0  0  0  0
   38.7090   29.1590   53.6820 C   0  0  0  0  0  0  0  0  0  0  0  0
   38.5880   28.3580   52.5080 C   0  0  0  0  0  0  0  0  0  0  0  0
   39.1670   28.6050   51.3030 C   0  0  0  0  0  0  0  0  0  0  0  0
   37.6570   27.1430   52.8850 O   0  0  0  0  0  0  0  0  0  0  0  0
   37.5560   27.3600   54.2740 C   0  0  0  0  0  0  0  0  0  0  0  0
   37.9970   28.5700   54.5180 O   0  0  0  0  0  0  0  0  0  0  0  0
   41.4931   30.3813   50.1191 H   0  0  0  0  0  0  0  0  0  0  0  0
   40.4891   29.0684   49.4154 H   0  0  0  0  0  0  0  0  0  0  0  0
   39.8843   30.7598   49.4154 H   0  0  0  0  0  0  0  0  0  0  0  0
   40.6995   31.4516   52.2496 H   0  0  0  0  0  0  0  0  0  0  0  0
   39.5209   31.0022   54.4143 H   0  0  0  0  0  0  0  0  0  0  0  0
   39.0960   27.9221   50.4435 H   0  0  0  0  0  0  0  0  0  0  0  0
   36.5068   27.2716   54.5924 H   0  0  0  0  0  0  0  0  0  0  0  0
   38.1468   26.6142   54.8260 H   0  0  0  0  0  0  0  0  0  0  0  0
  1  2  1  0
  2  3  1  0
  3  4  2  0
  4  5  1  0
  5  6  2  0
  6  7  1  0
  6  8  1  0
  8  9  1  0
  9 10  1  0
  7  2  2  0
 10  5  1  0
  1 11  1  0
  1 12  1  0
  1 13  1  0
  3 14  1  0
  4 15  1  0
  7 16  1  0
  9 17  1  0
  9 18  1  0
M  END
>  <docking_score>  (52) 
-6.647

>  <plif_similarity>  (52) 
0.333

$$$$
