Pocket2Mol_0
     RDKit          3D

 15 14  0  0  0  0  0  0  0  0999 V2000
   40.5490   30.3330   50.1120 C   0  0  0  0  0  0  0  0  0  0  0  0
   40.1880   30.3580   51.4510 C   0  0  0  0  0  0  0  0  0  0  0  0
   39.5580   29.2380   51.7990 C   0  0  0  0  0  0  0  0  0  0  0  0
   39.4830   28.1920   50.7050 C   0  0  0  0  0  0  0  0  0  0  0  0
   38.6450   27.1150   51.0970 O   0  0  0  0  0  0  0  0  0  0  0  0
   41.6432   30.2572   50.0286 H   0  0  0  0  0  0  0  0  0  0  0  0
   40.0830   29.4650   49.6227 H   0  0  0  0  0  0  0  0  0  0  0  0
   40.2071   31.2570   49.6227 H   0  0  0  0  0  0  0  0  0  0  0  0
   41.0941   30.4661   52.0653 H   0  0  0  0  0  0  0  0  0  0  0  0
   39.5070   31.2065   51.6132 H   0  0  0  0  0  0  0  0  0  0  0  0
   40.0869   28.7992   52.6579 H   0  0  0  0  0  0  0  0  0  0  0  0
   38.5210   29.5221   52.0311 H   0  0  0  0  0  0  0  0  0  0  0  0
   39.0763   28.6524   49.7925 H   0  0  0  0  0  0  0  0  0  0  0  0
   40.4947   27.8029   50.5178 H   0  0  0  0  0  0  0  0  0  0  0  0
   38.3070   26.6500   50.2910 H   0  0  0  0  0  0  0  0  0  0  0  0
  1  2  1  0
  2  3  1  0
  3  4  1  0
  4  5  1  0
  1  6  1  0
  1  7  1  0
  1  8  1  0
  2  9  1  0
  2 10  1  0
  3 11  1  0
  3 12  1  0
  4 13  1  0
  4 14  1  0
  5 15  1  0
M  END
>  <ID>  (1) 
Pocket2Mol_0_0

>  <docking_score>  (1) 
-3.96

$$$$
Pocket2Mol_10
     RDKit          3D

 14 14  0  0  0  0  0  0  0  0999 V2000
   37.1780   28.2380   53.5950 C   0  0  0  0  0  0  0  0  0  0  0  0
   37.7370   26.9690   54.2780 C   0  0  0  0  0  0  0  0  0  0  0  0
   39.2230   26.9310   53.8830 O   0  0  0  0  0  0  0  0  0  0  0  0
   39.5270   27.1120   52.4590 C   0  0  0  0  0  0  0  0  0  0  0  0
   38.7110   28.3300   51.7690 C   0  0  0  0  0  0  0  0  0  0  0  0
   37.5410   28.0840   52.2040 O   0  0  0  0  0  0  0  0  0  0  0  0
   36.0853   28.2927   53.7089 H   0  0  0  0  0  0  0  0  0  0  0  0
   37.5793   29.1632   54.0342 H   0  0  0  0  0  0  0  0  0  0  0  0
   37.6283   27.0373   55.3705 H   0  0  0  0  0  0  0  0  0  0  0  0
   37.2016   26.0601   53.9662 H   0  0  0  0  0  0  0  0  0  0  0  0
   40.6036   27.3131   52.3565 H   0  0  0  0  0  0  0  0  0  0  0  0
   39.2220   26.1885   51.9450 H   0  0  0  0  0  0  0  0  0  0  0  0
   39.0756   29.3105   52.1091 H   0  0  0  0  0  0  0  0  0  0  0  0
   38.7970   28.3846   50.6737 H   0  0  0  0  0  0  0  0  0  0  0  0
  1  2  1  0
  2  3  1  0
  3  4  1  0
  4  5  1  0
  5  6  1  0
  6  1  1  0
  1  7  1  0
  1  8  1  0
  2  9  1  0
  2 10  1  0
  4 11  1  0
  4 12  1  0
  5 13  1  0
  5 14  1  0
M  END
>  <ID>  (2) 
Pocket2Mol_10_0

>  <docking_score>  (2) 
-3.463

$$$$
Pocket2Mol_11
     RDKit          3D

 11 11  0  0  0  0  0  0  0  0999 V2000
   38.3790   27.4090   51.3050 O   0  0  0  0  0  0  0  0  0  0  0  0
   39.1250   28.4190   51.3060 C   0  0  0  0  0  0  0  0  0  0  0  0
   39.8440   29.0900   50.4090 C   0  0  0  0  0  0  0  0  0  0  0  0
   40.3250   30.1140   50.6200 C   0  0  0  0  0  0  0  0  0  0  0  0
   40.0800   30.4650   51.8960 C   0  0  0  0  0  0  0  0  0  0  0  0
   39.1940   29.2250   52.3540 N   0  0  0  0  0  0  0  0  0  0  0  0
   40.6705   28.4220   50.1251 H   0  0  0  0  0  0  0  0  0  0  0  0
   39.0721   29.3619   49.6740 H   0  0  0  0  0  0  0  0  0  0  0  0
   40.8951   30.7116   49.8934 H   0  0  0  0  0  0  0  0  0  0  0  0
   40.4001   31.3535   52.4601 H   0  0  0  0  0  0  0  0  0  0  0  0
   38.7610   29.0780   53.2770 H   0  0  0  0  0  0  0  0  0  0  0  0
  1  2  2  0
  2  3  1  0
  3  4  1  0
  4  5  2  0
  5  6  1  0
  6  2  1  0
  3  7  1  0
  3  8  1  0
  4  9  1  0
  5 10  1  0
  6 11  1  0
M  END
>  <ID>  (3) 
Pocket2Mol_11_0

>  <docking_score>  (3) 
-4.456

$$$$
Pocket2Mol_12
     RDKit          3D

 10 10  0  0  0  0  0  0  0  0999 V2000
   39.3130   36.0810   47.2970 O   0  0  0  0  0  0  0  0  0  0  0  0
   38.6400   35.5610   48.1560 C   0  0  0  0  0  0  0  0  0  0  0  0
   37.9640   34.3860   47.9690 O   0  0  0  0  0  0  0  0  0  0  0  0
   37.1870   34.1490   49.1560 C   0  0  0  0  0  0  0  0  0  0  0  0
   37.4430   35.3530   49.9130 C   0  0  0  0  0  0  0  0  0  0  0  0
   38.3180   36.1600   49.3530 O   0  0  0  0  0  0  0  0  0  0  0  0
   36.1177   34.0415   48.9215 H   0  0  0  0  0  0  0  0  0  0  0  0
   37.4494   33.2216   49.6861 H   0  0  0  0  0  0  0  0  0  0  0  0
   36.4943   35.8976   50.0284 H   0  0  0  0  0  0  0  0  0  0  0  0
   37.8703   35.0388   50.8767 H   0  0  0  0  0  0  0  0  0  0  0  0
  1  2  2  0
  2  3  1  0
  3  4  1  0
  4  5  1  0
  5  6  1  0
  6  2  1  0
  4  7  1  0
  4  8  1  0
  5  9  1  0
  5 10  1  0
M  END
>  <ID>  (4) 
Pocket2Mol_12_0

>  <docking_score>  (4) 
-3.717

$$$$
Pocket2Mol_13
     RDKit          3D

 12 12  0  0  0  0  0  0  0  0999 V2000
   38.3930   27.4610   51.3900 O   0  0  0  0  0  0  0  0  0  0  0  0
   39.1050   28.4700   51.3950 C   0  0  0  0  0  0  0  0  0  0  0  0
   39.8630   28.9640   50.2780 C   0  0  0  0  0  0  0  0  0  0  0  0
   40.5850   30.2220   50.7960 C   0  0  0  0  0  0  0  0  0  0  0  0
   39.8580   30.3980   52.0180 C   0  0  0  0  0  0  0  0  0  0  0  0
   39.2900   29.2770   52.3910 O   0  0  0  0  0  0  0  0  0  0  0  0
   40.5928   28.2112   49.9454 H   0  0  0  0  0  0  0  0  0  0  0  0
   39.2192   29.1888   49.4149 H   0  0  0  0  0  0  0  0  0  0  0  0
   41.6555   30.0417   50.9732 H   0  0  0  0  0  0  0  0  0  0  0  0
   40.5880   31.0851   50.1141 H   0  0  0  0  0  0  0  0  0  0  0  0
   40.5515   30.7294   52.8049 H   0  0  0  0  0  0  0  0  0  0  0  0
   39.0735   31.1515   51.8543 H   0  0  0  0  0  0  0  0  0  0  0  0
  1  2  2  0
  2  3  1  0
  3  4  1  0
  4  5  1  0
  5  6  1  0
  6  2  1  0
  3  7  1  0
  3  8  1  0
  4  9  1  0
  4 10  1  0
  5 11  1  0
  5 12  1  0
M  END
>  <ID>  (5) 
Pocket2Mol_13_0

>  <docking_score>  (5) 
-4.37

$$$$
Pocket2Mol_14
     RDKit          3D

 18 18  0  0  0  0  0  0  0  0999 V2000
   39.9650   27.6720   51.5950 C   0  0  0  0  0  0  0  0  0  0  0  0
   39.2290   28.4990   51.0260 C   0  0  0  0  0  0  0  0  0  0  0  0
   39.8930   29.2810   50.1530 C   0  0  0  0  0  0  0  0  0  0  0  0
   40.6460   30.1870   50.7290 C   0  0  0  0  0  0  0  0  0  0  0  0
   40.2440   30.3990   51.8140 C   0  0  0  0  0  0  0  0  0  0  0  0
   39.3920   29.7790   51.9130 C   0  0  0  0  0  0  0  0  0  0  0  0
   39.8666   27.7825   52.6850 H   0  0  0  0  0  0  0  0  0  0  0  0
   39.6685   26.6542   51.3014 H   0  0  0  0  0  0  0  0  0  0  0  0
   41.0103   27.8484   51.3014 H   0  0  0  0  0  0  0  0  0  0  0  0
   38.3251   27.9410   50.7404 H   0  0  0  0  0  0  0  0  0  0  0  0
   40.5344   28.6403   49.5300 H   0  0  0  0  0  0  0  0  0  0  0  0
   39.1375   29.8178   49.5606 H   0  0  0  0  0  0  0  0  0  0  0  0
   41.6815   29.8203   50.7868 H   0  0  0  0  0  0  0  0  0  0  0  0
   40.6181   31.1155   50.1398 H   0  0  0  0  0  0  0  0  0  0  0  0
   41.0028   30.1376   52.5662 H   0  0  0  0  0  0  0  0  0  0  0  0
   40.0042   31.4615   51.9675 H   0  0  0  0  0  0  0  0  0  0  0  0
   39.3687   29.4413   52.9596 H   0  0  0  0  0  0  0  0  0  0  0  0
   38.5748   30.4266   51.5626 H   0  0  0  0  0  0  0  0  0  0  0  0
  1  2  1  0
  2  3  1  0
  3  4  1  0
  4  5  1  0
  5  6  1  0
  6  2  1  0
  1  7  1  0
  1  8  1  0
  1  9  1  0
  2 10  1  0
  3 11  1  0
  3 12  1  0
  4 13  1  0
  4 14  1  0
  5 15  1  0
  5 16  1  0
  6 17  1  0
  6 18  1  0
M  END
>  <ID>  (6) 
Pocket2Mol_14_0

>  <docking_score>  (6) 
-4.727

$$$$
Pocket2Mol_15
     RDKit          3D

 16 16  0  0  0  0  0  0  0  0999 V2000
   39.5720   31.1570   49.7680 O   0  0  0  0  0  0  0  0  0  0  0  0
   40.5810   30.3600   50.4380 C   0  0  0  0  0  0  0  0  0  0  0  0
   40.2180   30.4670   51.7130 C   0  0  0  0  0  0  0  0  0  0  0  0
   39.5360   29.7070   52.2440 C   0  0  0  0  0  0  0  0  0  0  0  0
   39.2310   28.7130   51.3910 C   0  0  0  0  0  0  0  0  0  0  0  0
   40.0370   28.9640   50.1960 C   0  0  0  0  0  0  0  0  0  0  0  0
   39.9350   31.4970   48.9120 H   0  0  0  0  0  0  0  0  0  0  0  0
   41.6241   30.5877   50.1731 H   0  0  0  0  0  0  0  0  0  0  0  0
   41.1534   30.4876   52.2915 H   0  0  0  0  0  0  0  0  0  0  0  0
   39.5669   31.3529   51.6779 H   0  0  0  0  0  0  0  0  0  0  0  0
   40.0582   29.2931   53.1192 H   0  0  0  0  0  0  0  0  0  0  0  0
   38.6131   30.2067   52.5734 H   0  0  0  0  0  0  0  0  0  0  0  0
   39.4872   27.7374   51.8298 H   0  0  0  0  0  0  0  0  0  0  0  0
   38.1557   28.6877   51.1607 H   0  0  0  0  0  0  0  0  0  0  0  0
   40.8529   28.2315   50.1084 H   0  0  0  0  0  0  0  0  0  0  0  0
   39.4641   28.8781   49.2609 H   0  0  0  0  0  0  0  0  0  0  0  0
  1  2  1  0
  2  3  1  0
  3  4  1  0
  4  5  1  0
  5  6  1  0
  6  2  1  0
  1  7  1  0
  2  8  1  0
  3  9  1  0
  3 10  1  0
  4 11  1  0
  4 12  1  0
  5 13  1  0
  5 14  1  0
  6 15  1  0
  6 16  1  0
M  END
>  <ID>  (7) 
Pocket2Mol_15_0

>  <docking_score>  (7) 
-4.466

$$$$
Pocket2Mol_16
     RDKit          3D

 18 18  0  0  0  0  0  0  0  0999 V2000
   40.3790   29.1900   50.3540 C   0  0  0  0  0  0  0  0  0  0  0  0
   39.4310   28.2400   50.6630 C   0  0  0  0  0  0  0  0  0  0  0  0
   39.5880   27.8170   52.1060 C   0  0  0  0  0  0  0  0  0  0  0  0
   39.2240   29.2300   52.8740 C   0  0  0  0  0  0  0  0  0  0  0  0
   39.9510   30.5120   52.2410 C   0  0  0  0  0  0  0  0  0  0  0  0
   39.9890   30.4650   50.6550 C   0  0  0  0  0  0  0  0  0  0  0  0
   41.2959   28.9637   50.9179 H   0  0  0  0  0  0  0  0  0  0  0  0
   40.5382   29.1477   49.2664 H   0  0  0  0  0  0  0  0  0  0  0  0
   38.4267   28.6627   50.5127 H   0  0  0  0  0  0  0  0  0  0  0  0
   39.5641   27.3652   50.0095 H   0  0  0  0  0  0  0  0  0  0  0  0
   38.8831   27.0160   52.3735 H   0  0  0  0  0  0  0  0  0  0  0  0
   40.5743   27.3996   52.3568 H   0  0  0  0  0  0  0  0  0  0  0  0
   38.1363   29.3850   52.8195 H   0  0  0  0  0  0  0  0  0  0  0  0
   39.5823   29.1352   53.9097 H   0  0  0  0  0  0  0  0  0  0  0  0
   39.4088   31.4162   52.5546 H   0  0  0  0  0  0  0  0  0  0  0  0
   40.9904   30.5197   52.6011 H   0  0  0  0  0  0  0  0  0  0  0  0
   38.9934   30.6749   50.2369 H   0  0  0  0  0  0  0  0  0  0  0  0
   40.6700   31.2187   50.2329 H   0  0  0  0  0  0  0  0  0  0  0  0
  1  2  1  0
  2  3  1  0
  3  4  1  0
  4  5  1  0
  5  6  1  0
  6  1  1  0
  1  7  1  0
  1  8  1  0
  2  9  1  0
  2 10  1  0
  3 11  1  0
  3 12  1  0
  4 13  1  0
  4 14  1  0
  5 15  1  0
  5 16  1  0
  6 17  1  0
  6 18  1  0
M  END
>  <ID>  (8) 
Pocket2Mol_16_0

>  <docking_score>  (8) 
-4.717

$$$$
Pocket2Mol_17
     RDKit          3D

 10 10  0  0  0  0  0  0  0  0999 V2000
   38.3450   27.5110   51.4510 O   0  0  0  0  0  0  0  0  0  0  0  0
   39.0800   28.5290   51.5220 C   0  0  0  0  0  0  0  0  0  0  0  0
   39.8450   28.9230   50.2760 C   0  0  0  0  0  0  0  0  0  0  0  0
   40.5850   30.2490   50.6700 C   0  0  0  0  0  0  0  0  0  0  0  0
   40.0170   30.4650   51.9430 C   0  0  0  0  0  0  0  0  0  0  0  0
   39.2160   29.3940   52.2590 O   0  0  0  0  0  0  0  0  0  0  0  0
   40.5684   28.1414   50.0009 H   0  0  0  0  0  0  0  0  0  0  0  0
   39.1856   29.0556   49.4056 H   0  0  0  0  0  0  0  0  0  0  0  0
   41.3298   30.8385   50.1152 H   0  0  0  0  0  0  0  0  0  0  0  0
   40.1873   31.3464   52.5787 H   0  0  0  0  0  0  0  0  0  0  0  0
  1  2  2  0
  2  3  1  0
  3  4  1  0
  4  5  2  0
  5  6  1  0
  6  2  1  0
  3  7  1  0
  3  8  1  0
  4  9  1  0
  5 10  1  0
M  END
>  <ID>  (9) 
Pocket2Mol_17_0

>  <docking_score>  (9) 
-4.411

$$$$
Pocket2Mol_18
     RDKit          3D

 11 11  0  0  0  0  0  0  0  0999 V2000
   38.9660   27.4410   50.6870 O   0  0  0  0  0  0  0  0  0  0  0  0
   39.4270   28.4490   50.7830 N   0  0  0  0  0  0  0  0  0  0  0  0
   39.4810   29.2700   52.0030 C   0  0  0  0  0  0  0  0  0  0  0  0
   40.0500   30.4540   51.9330 C   0  0  0  0  0  0  0  0  0  0  0  0
   40.4860   30.3660   50.6650 C   0  0  0  0  0  0  0  0  0  0  0  0
   40.1400   29.3750   49.9690 C   0  0  0  0  0  0  0  0  0  0  0  0
   39.0610   26.9310   49.8430 H   0  0  0  0  0  0  0  0  0  0  0  0
   39.0565   28.9031   52.9492 H   0  0  0  0  0  0  0  0  0  0  0  0
   40.1402   31.2599   52.6762 H   0  0  0  0  0  0  0  0  0  0  0  0
   41.1347   31.1470   50.2417 H   0  0  0  0  0  0  0  0  0  0  0  0
   40.3552   29.2448   48.8981 H   0  0  0  0  0  0  0  0  0  0  0  0
  1  2  1  0
  2  3  1  0
  3  4  2  0
  4  5  1  0
  5  6  2  0
  6  2  1  0
  1  7  1  0
  3  8  1  0
  4  9  1  0
  5 10  1  0
  6 11  1  0
M  END
>  <ID>  (10) 
Pocket2Mol_18_0

>  <docking_score>  (10) 
-4.328

$$$$
Pocket2Mol_19
     RDKit          3D

 13 13  0  0  0  0  0  0  0  0999 V2000
   38.6720   27.5100   51.7540 C   0  0  0  0  0  0  0  0  0  0  0  0
   39.3290   28.5710   51.4840 N   0  0  0  0  0  0  0  0  0  0  0  0
   39.9730   29.1750   50.3070 C   0  0  0  0  0  0  0  0  0  0  0  0
   40.5220   30.3630   50.4380 C   0  0  0  0  0  0  0  0  0  0  0  0
   40.1310   30.6010   51.7020 C   0  0  0  0  0  0  0  0  0  0  0  0
   39.5600   29.6810   52.3460 C   0  0  0  0  0  0  0  0  0  0  0  0
   38.5988   27.3918   52.8452 H   0  0  0  0  0  0  0  0  0  0  0  0
   37.6620   27.5849   51.3247 H   0  0  0  0  0  0  0  0  0  0  0  0
   39.1892   26.6392   51.3247 H   0  0  0  0  0  0  0  0  0  0  0  0
   39.9948   28.6466   49.3424 H   0  0  0  0  0  0  0  0  0  0  0  0
   41.1134   30.9693   49.7361 H   0  0  0  0  0  0  0  0  0  0  0  0
   40.3067   31.5826   52.1662 H   0  0  0  0  0  0  0  0  0  0  0  0
   39.2828   29.7278   53.4095 H   0  0  0  0  0  0  0  0  0  0  0  0
  1  2  1  0
  2  3  1  0
  3  4  2  0
  4  5  1  0
  5  6  2  0
  6  2  1  0
  1  7  1  0
  1  8  1  0
  1  9  1  0
  3 10  1  0
  4 11  1  0
  5 12  1  0
  6 13  1  0
M  END
>  <ID>  (11) 
Pocket2Mol_19_0

>  <docking_score>  (11) 
-4.08

$$$$
Pocket2Mol_1
     RDKit          3D

  9  9  0  0  0  0  0  0  0  0999 V2000
   40.3360   30.2450   50.4080 C   0  0  0  0  0  0  0  0  0  0  0  0
   39.7850   28.7080   50.5380 C   0  0  0  0  0  0  0  0  0  0  0  0
   39.1850   28.5220   51.6770 C   0  0  0  0  0  0  0  0  0  0  0  0
   39.3980   29.6270   52.2730 O   0  0  0  0  0  0  0  0  0  0  0  0
   40.1140   30.4480   51.7450 C   0  0  0  0  0  0  0  0  0  0  0  0
   40.7250   30.8619   49.5845 H   0  0  0  0  0  0  0  0  0  0  0  0
   39.9063   27.9354   49.7645 H   0  0  0  0  0  0  0  0  0  0  0  0
   38.6354   27.6383   52.0334 H   0  0  0  0  0  0  0  0  0  0  0  0
   40.5529   31.2926   52.2964 H   0  0  0  0  0  0  0  0  0  0  0  0
  1  2  1  0
  2  3  2  0
  3  4  1  0
  4  5  1  0
  5  1  2  0
  1  6  1  0
  2  7  1  0
  3  8  1  0
  5  9  1  0
M  END
>  <ID>  (12) 
Pocket2Mol_1_0

>  <docking_score>  (12) 
-3.617

$$$$
Pocket2Mol_20
     RDKit          3D

 10  9  0  0  0  0  0  0  0  0999 V2000
   39.5600   28.5810   51.2880 C   0  0  0  0  0  0  0  0  0  0  0  0
   40.0740   29.9080   51.1570 C   0  0  0  0  0  0  0  0  0  0  0  0
   40.5200   30.4000   50.0990 C   0  0  0  0  0  0  0  0  0  0  0  0
   39.9440   30.6200   52.3240 O   0  0  0  0  0  0  0  0  0  0  0  0
   39.4625   28.3292   52.3543 H   0  0  0  0  0  0  0  0  0  0  0  0
   38.5734   28.5206   50.8052 H   0  0  0  0  0  0  0  0  0  0  0  0
   40.2485   27.8718   50.8052 H   0  0  0  0  0  0  0  0  0  0  0  0
   41.2409   31.1952   50.3398 H   0  0  0  0  0  0  0  0  0  0  0  0
   41.0214   29.6158   49.5128 H   0  0  0  0  0  0  0  0  0  0  0  0
   39.6905   30.8222   49.5128 H   0  0  0  0  0  0  0  0  0  0  0  0
  1  2  1  0
  2  3  1  0
  2  4  2  0
  1  5  1  0
  1  6  1  0
  1  7  1  0
  3  8  1  0
  3  9  1  0
  3 10  1  0
M  END
>  <ID>  (13) 
Pocket2Mol_20_0

>  <docking_score>  (13) 
-3.201

$$$$
Pocket2Mol_21
     RDKit          3D

 14 14  0  0  0  0  0  0  0  0999 V2000
   39.5060   28.1750   50.8020 C   0  0  0  0  0  0  0  0  0  0  0  0
   38.7370   27.5570   51.8350 C   0  0  0  0  0  0  0  0  0  0  0  0
   37.6190   28.1670   52.1460 O   0  0  0  0  0  0  0  0  0  0  0  0
   37.3660   27.9750   53.5480 C   0  0  0  0  0  0  0  0  0  0  0  0
   38.6120   27.3910   53.9890 C   0  0  0  0  0  0  0  0  0  0  0  0
   39.3280   27.4620   52.8400 O   0  0  0  0  0  0  0  0  0  0  0  0
   40.2880   28.8035   51.2531 H   0  0  0  0  0  0  0  0  0  0  0  0
   39.9737   27.3986   50.1787 H   0  0  0  0  0  0  0  0  0  0  0  0
   38.8485   28.7988   50.1787 H   0  0  0  0  0  0  0  0  0  0  0  0
   38.5084   26.5784   51.3878 H   0  0  0  0  0  0  0  0  0  0  0  0
   37.1687   28.9309   54.0552 H   0  0  0  0  0  0  0  0  0  0  0  0
   36.4809   27.3583   53.7634 H   0  0  0  0  0  0  0  0  0  0  0  0
   39.0752   27.9790   54.7951 H   0  0  0  0  0  0  0  0  0  0  0  0
   38.5234   26.3815   54.4168 H   0  0  0  0  0  0  0  0  0  0  0  0
  1  2  1  0
  2  3  1  0
  3  4  1  0
  4  5  1  0
  5  6  1  0
  6  2  1  0
  1  7  1  0
  1  8  1  0
  1  9  1  0
  2 10  1  0
  4 11  1  0
  4 12  1  0
  5 13  1  0
  5 14  1  0
M  END
>  <ID>  (14) 
Pocket2Mol_21_0

>  <docking_score>  (14) 
-3.848

$$$$
Pocket2Mol_22
     RDKit          3D

 11 11  0  0  0  0  0  0  0  0999 V2000
   39.6170   30.4510   53.5710 C   0  0  0  0  0  0  0  0  0  0  0  0
   39.1740   29.3510   52.6560 C   0  0  0  0  0  0  0  0  0  0  0  0
   39.8510   29.1510   51.4730 C   0  0  0  0  0  0  0  0  0  0  0  0
   39.4230   28.2190   50.8010 C   0  0  0  0  0  0  0  0  0  0  0  0
   38.4530   27.4930   51.4280 N   0  0  0  0  0  0  0  0  0  0  0  0
   38.2090   28.2250   52.8950 S   0  0  0  0  0  0  0  0  0  0  0  0
   39.4888   30.1326   54.6161 H   0  0  0  0  0  0  0  0  0  0  0  0
   40.6769   30.6786   53.3845 H   0  0  0  0  0  0  0  0  0  0  0  0
   39.0107   31.3496   53.3845 H   0  0  0  0  0  0  0  0  0  0  0  0
   40.7017   29.7734   51.1586 H   0  0  0  0  0  0  0  0  0  0  0  0
   39.7867   27.9900   49.7885 H   0  0  0  0  0  0  0  0  0  0  0  0
  1  2  1  0
  2  3  2  0
  3  4  1  0
  4  5  2  0
  5  6  1  0
  6  2  1  0
  1  7  1  0
  1  8  1  0
  1  9  1  0
  3 10  1  0
  4 11  1  0
M  END
>  <ID>  (15) 
Pocket2Mol_22_0

>  <docking_score>  (15) 
-4.094

$$$$
Pocket2Mol_23
     RDKit          3D

 16 15  0  0  0  0  0  0  0  0999 V2000
   37.2550   28.2270   53.4140 C   0  0  0  0  0  0  0  0  0  0  0  0
   37.6930   28.0870   52.1340 O   0  0  0  0  0  0  0  0  0  0  0  0
   38.9290   27.4840   51.9770 C   0  0  0  0  0  0  0  0  0  0  0  0
   39.4920   28.1430   50.7200 C   0  0  0  0  0  0  0  0  0  0  0  0
   40.0430   29.3180   51.0610 O   0  0  0  0  0  0  0  0  0  0  0  0
   40.3020   30.2540   50.3020 C   0  0  0  0  0  0  0  0  0  0  0  0
   38.0666   27.9676   54.1097 H   0  0  0  0  0  0  0  0  0  0  0  0
   36.9455   29.2688   53.5838 H   0  0  0  0  0  0  0  0  0  0  0  0
   36.3986   27.5578   53.5838 H   0  0  0  0  0  0  0  0  0  0  0  0
   39.5747   27.6794   52.8459 H   0  0  0  0  0  0  0  0  0  0  0  0
   38.8632   26.3892   51.8931 H   0  0  0  0  0  0  0  0  0  0  0  0
   40.2566   27.4918   50.2713 H   0  0  0  0  0  0  0  0  0  0  0  0
   38.6866   28.3046   49.9884 H   0  0  0  0  0  0  0  0  0  0  0  0
   40.5494   31.1479   50.8934 H   0  0  0  0  0  0  0  0  0  0  0  0
   41.1595   29.9852   49.6676 H   0  0  0  0  0  0  0  0  0  0  0  0
   39.4283   30.4642   49.6676 H   0  0  0  0  0  0  0  0  0  0  0  0
  1  2  1  0
  2  3  1  0
  3  4  1  0
  4  5  1  0
  5  6  1  0
  1  7  1  0
  1  8  1  0
  1  9  1  0
  3 10  1  0
  3 11  1  0
  4 12  1  0
  4 13  1  0
  6 14  1  0
  6 15  1  0
  6 16  1  0
M  END
>  <ID>  (16) 
Pocket2Mol_23_0

>  <docking_score>  (16) 
-3.345

$$$$
Pocket2Mol_24
     RDKit          3D

 15 15  0  0  0  0  0  0  0  0999 V2000
   38.9610   28.4830   53.3980 C   0  0  0  0  0  0  0  0  0  0  0  0
   39.2470   29.0350   52.2560 N   0  0  0  0  0  0  0  0  0  0  0  0
   39.3510   28.4430   51.0160 C   0  0  0  0  0  0  0  0  0  0  0  0
   40.1140   29.1550   50.2010 C   0  0  0  0  0  0  0  0  0  0  0  0
   40.4540   30.3650   50.7440 C   0  0  0  0  0  0  0  0  0  0  0  0
   39.9070   30.4690   52.1310 C   0  0  0  0  0  0  0  0  0  0  0  0
   39.2994   29.1361   54.2159 H   0  0  0  0  0  0  0  0  0  0  0  0
   37.8734   28.3361   53.4721 H   0  0  0  0  0  0  0  0  0  0  0  0
   39.4683   27.5098   53.4721 H   0  0  0  0  0  0  0  0  0  0  0  0
   39.7908   27.4416   51.1337 H   0  0  0  0  0  0  0  0  0  0  0  0
   38.3438   28.3793   50.5783 H   0  0  0  0  0  0  0  0  0  0  0  0
   40.4364   28.8147   49.2059 H   0  0  0  0  0  0  0  0  0  0  0  0
   41.0416   31.1437   50.2357 H   0  0  0  0  0  0  0  0  0  0  0  0
   40.7019   30.6218   52.8758 H   0  0  0  0  0  0  0  0  0  0  0  0
   39.2267   31.3157   52.3051 H   0  0  0  0  0  0  0  0  0  0  0  0
  1  2  1  0
  2  3  1  0
  3  4  1  0
  4  5  2  0
  5  6  1  0
  6  2  1  0
  1  7  1  0
  1  8  1  0
  1  9  1  0
  3 10  1  0
  3 11  1  0
  4 12  1  0
  5 13  1  0
  6 14  1  0
  6 15  1  0
M  END
>  <ID>  (17) 
Pocket2Mol_24_0

>  <docking_score>  (17) 
-3.979

$$$$
Pocket2Mol_25
     RDKit          3D

 15 15  0  0  0  0  0  0  0  0999 V2000
   39.4560   30.5820   54.1020 C   0  0  0  0  0  0  0  0  0  0  0  0
   39.6340   29.9730   52.7110 C   0  0  0  0  0  0  0  0  0  0  0  0
   39.1550   28.6240   52.6020 C   0  0  0  0  0  0  0  0  0  0  0  0
   39.1220   28.0890   51.3680 C   0  0  0  0  0  0  0  0  0  0  0  0
   39.7930   28.6680   50.3360 C   0  0  0  0  0  0  0  0  0  0  0  0
   40.3160   30.0410   50.6460 C   0  0  0  0  0  0  0  0  0  0  0  0
   40.1730   30.6110   51.7500 C   0  0  0  0  0  0  0  0  0  0  0  0
   39.6780   29.8224   54.8660 H   0  0  0  0  0  0  0  0  0  0  0  0
   40.1430   31.4329   54.2204 H   0  0  0  0  0  0  0  0  0  0  0  0
   38.4189   30.9289   54.2204 H   0  0  0  0  0  0  0  0  0  0  0  0
   38.8304   28.0548   53.4855 H   0  0  0  0  0  0  0  0  0  0  0  0
   38.5440   27.1700   51.1910 H   0  0  0  0  0  0  0  0  0  0  0  0
   39.9391   28.1754   49.3634 H   0  0  0  0  0  0  0  0  0  0  0  0
   40.8580   30.5782   49.8538 H   0  0  0  0  0  0  0  0  0  0  0  0
   40.5083   31.6494   51.8889 H   0  0  0  0  0  0  0  0  0  0  0  0
  1  2  1  0
  2  3  2  0
  3  4  1  0
  4  5  2  0
  5  6  1  0
  6  7  2  0
  7  2  1  0
  1  8  1  0
  1  9  1  0
  1 10  1  0
  3 11  1  0
  4 12  1  0
  5 13  1  0
  6 14  1  0
  7 15  1  0
M  END
>  <ID>  (18) 
Pocket2Mol_25_0

>  <docking_score>  (18) 
-5.655

$$$$
Pocket2Mol_26
     RDKit          3D

 13 13  0  0  0  0  0  0  0  0999 V2000
   37.6880   27.6980   52.1710 O   0  0  0  0  0  0  0  0  0  0  0  0
   38.7210   28.4750   51.8380 C   0  0  0  0  0  0  0  0  0  0  0  0
   39.4580   28.0950   50.6520 C   0  0  0  0  0  0  0  0  0  0  0  0
   39.9670   29.3770   50.0340 O   0  0  0  0  0  0  0  0  0  0  0  0
   40.6530   30.2640   50.9930 C   0  0  0  0  0  0  0  0  0  0  0  0
   39.8020   30.5190   52.2470 C   0  0  0  0  0  0  0  0  0  0  0  0
   39.2650   29.2390   52.6500 O   0  0  0  0  0  0  0  0  0  0  0  0
   40.3012   27.4421   50.9215 H   0  0  0  0  0  0  0  0  0  0  0  0
   38.8204   27.5399   49.9482 H   0  0  0  0  0  0  0  0  0  0  0  0
   41.6010   29.7952   51.2957 H   0  0  0  0  0  0  0  0  0  0  0  0
   40.8290   31.2304   50.4980 H   0  0  0  0  0  0  0  0  0  0  0  0
   40.4259   30.9385   53.0500 H   0  0  0  0  0  0  0  0  0  0  0  0
   38.9967   31.2391   52.0398 H   0  0  0  0  0  0  0  0  0  0  0  0
  1  2  2  0
  2  3  1  0
  3  4  1  0
  4  5  1  0
  5  6  1  0
  6  7  1  0
  7  2  1  0
  3  8  1  0
  3  9  1  0
  5 10  1  0
  5 11  1  0
  6 12  1  0
  6 13  1  0
M  END
>  <ID>  (19) 
Pocket2Mol_26_0

>  <docking_score>  (19) 
-4.157

$$$$
Pocket2Mol_27
     RDKit          3D

 13 13  0  0  0  0  0  0  0  0999 V2000
   38.0650   27.4630   52.4860 O   0  0  0  0  0  0  0  0  0  0  0  0
   38.9570   28.5790   51.9330 C   0  0  0  0  0  0  0  0  0  0  0  0
   39.3500   29.6690   52.5370 C   0  0  0  0  0  0  0  0  0  0  0  0
   40.0690   30.5110   52.0090 C   0  0  0  0  0  0  0  0  0  0  0  0
   40.5750   30.3440   50.7340 C   0  0  0  0  0  0  0  0  0  0  0  0
   40.1040   29.0210   50.1210 C   0  0  0  0  0  0  0  0  0  0  0  0
   39.4050   28.2500   50.6970 C   0  0  0  0  0  0  0  0  0  0  0  0
   37.1380   27.6640   52.7680 H   0  0  0  0  0  0  0  0  0  0  0  0
   39.0191   29.8403   53.5720 H   0  0  0  0  0  0  0  0  0  0  0  0
   40.3183   31.4257   52.5668 H   0  0  0  0  0  0  0  0  0  0  0  0
   41.2303   31.0665   50.2255 H   0  0  0  0  0  0  0  0  0  0  0  0
   40.4278   28.7724   49.0995 H   0  0  0  0  0  0  0  0  0  0  0  0
   39.1281   27.2903   50.2362 H   0  0  0  0  0  0  0  0  0  0  0  0
  1  2  1  0
  2  3  2  0
  3  4  1  0
  4  5  2  0
  5  6  1  0
  6  7  2  0
  7  2  1  0
  1  8  1  0
  3  9  1  0
  4 10  1  0
  5 11  1  0
  6 12  1  0
  7 13  1  0
M  END
>  <ID>  (20) 
Pocket2Mol_27_0

>  <docking_score>  (20) 
-5.231

$$$$
Pocket2Mol_28
     RDKit          3D

 14 14  0  0  0  0  0  0  0  0999 V2000
   38.0530   27.5620   52.6650 N   0  0  0  0  0  0  0  0  0  0  0  0
   39.0160   28.4360   51.9400 C   0  0  0  0  0  0  0  0  0  0  0  0
   39.4520   28.2850   50.6990 C   0  0  0  0  0  0  0  0  0  0  0  0
   40.0490   29.1580   50.2450 C   0  0  0  0  0  0  0  0  0  0  0  0
   40.5390   30.2610   50.7800 C   0  0  0  0  0  0  0  0  0  0  0  0
   40.0680   30.5330   52.0640 C   0  0  0  0  0  0  0  0  0  0  0  0
   39.2690   29.6250   52.6820 C   0  0  0  0  0  0  0  0  0  0  0  0
   38.3650   27.0230   53.4850 H   0  0  0  0  0  0  0  0  0  0  0  0
   37.0760   27.4960   52.3460 H   0  0  0  0  0  0  0  0  0  0  0  0
   39.2526   27.3665   50.1276 H   0  0  0  0  0  0  0  0  0  0  0  0
   40.2477   29.0544   49.1681 H   0  0  0  0  0  0  0  0  0  0  0  0
   41.2573   30.9099   50.2576 H   0  0  0  0  0  0  0  0  0  0  0  0
   40.3401   31.4711   52.5700 H   0  0  0  0  0  0  0  0  0  0  0  0
   38.8476   29.7957   53.6836 H   0  0  0  0  0  0  0  0  0  0  0  0
  1  2  1  0
  2  3  2  0
  3  4  1  0
  4  5  2  0
  5  6  1  0
  6  7  2  0
  7  2  1  0
  1  8  1  0
  1  9  1  0
  3 10  1  0
  4 11  1  0
  5 12  1  0
  6 13  1  0
  7 14  1  0
M  END
>  <ID>  (21) 
Pocket2Mol_28_0

>  <docking_score>  (21) 
-5.301

$$$$
Pocket2Mol_29
     RDKit          3D

 17 17  0  0  0  0  0  0  0  0999 V2000
   37.8530   27.8110   51.8810 O   0  0  0  0  0  0  0  0  0  0  0  0
   38.9920   28.5190   51.7780 C   0  0  0  0  0  0  0  0  0  0  0  0
   39.4520   29.3460   52.5950 C   0  0  0  0  0  0  0  0  0  0  0  0
   39.8310   30.4600   52.0380 C   0  0  0  0  0  0  0  0  0  0  0  0
   40.7900   30.2620   50.9260 C   0  0  0  0  0  0  0  0  0  0  0  0
   40.0510   29.5690   49.9960 C   0  0  0  0  0  0  0  0  0  0  0  0
   39.6450   28.2980   50.6080 C   0  0  0  0  0  0  0  0  0  0  0  0
   38.6735   29.5737   53.3380 H   0  0  0  0  0  0  0  0  0  0  0  0
   40.3416   28.8911   53.0552 H   0  0  0  0  0  0  0  0  0  0  0  0
   38.9416   30.9741   51.6448 H   0  0  0  0  0  0  0  0  0  0  0  0
   40.3444   31.0523   52.8098 H   0  0  0  0  0  0  0  0  0  0  0  0
   41.1297   31.2267   50.5211 H   0  0  0  0  0  0  0  0  0  0  0  0
   41.7043   29.7330   51.2328 H   0  0  0  0  0  0  0  0  0  0  0  0
   39.1609   30.1511   49.7151 H   0  0  0  0  0  0  0  0  0  0  0  0
   40.6452   29.3878   49.0882 H   0  0  0  0  0  0  0  0  0  0  0  0
   38.9782   27.7608   49.9175 H   0  0  0  0  0  0  0  0  0  0  0  0
   40.5446   27.6984   50.8112 H   0  0  0  0  0  0  0  0  0  0  0  0
  1  2  2  0
  2  3  1  0
  3  4  1  0
  4  5  1  0
  5  6  1  0
  6  7  1  0
  7  2  1  0
  3  8  1  0
  3  9  1  0
  4 10  1  0
  4 11  1  0
  5 12  1  0
  5 13  1  0
  6 14  1  0
  6 15  1  0
  7 16  1  0
  7 17  1  0
M  END
>  <ID>  (22) 
Pocket2Mol_29_0

>  <docking_score>  (22) 
-5.613

$$$$
Pocket2Mol_2
     RDKit          3D

  9  9  0  0  0  0  0  0  0  0999 V2000
   40.4750   30.4320   50.6080 C   0  0  0  0  0  0  0  0  0  0  0  0
   39.9920   30.3980   51.8620 C   0  0  0  0  0  0  0  0  0  0  0  0
   39.4050   28.8420   52.1040 C   0  0  0  0  0  0  0  0  0  0  0  0
   39.4720   28.2870   50.7970 C   0  0  0  0  0  0  0  0  0  0  0  0
   40.2170   29.2290   49.9180 C   0  0  0  0  0  0  0  0  0  0  0  0
   39.9828   31.2254   52.5868 H   0  0  0  0  0  0  0  0  0  0  0  0
   39.0575   28.3726   53.0362 H   0  0  0  0  0  0  0  0  0  0  0  0
   39.0445   27.3221   50.4870 H   0  0  0  0  0  0  0  0  0  0  0  0
   40.5217   29.0181   48.8823 H   0  0  0  0  0  0  0  0  0  0  0  0
  1  2  2  0
  2  3  1  0
  3  4  2  0
  4  5  1  0
  5  1  2  0
  2  6  1  0
  3  7  1  0
  4  8  1  0
  5  9  1  0
M  END
>  <ID>  (23) 
Pocket2Mol_2_0

>  <docking_score>  (23) 
-4.281

$$$$
Pocket2Mol_30
     RDKit          3D

 15 15  0  0  0  0  0  0  0  0999 V2000
   38.6150   27.2320   50.6490 O   0  0  0  0  0  0  0  0  0  0  0  0
   39.3610   27.4390   51.7680 C   0  0  0  0  0  0  0  0  0  0  0  0
   38.5860   28.5320   52.4830 C   0  0  0  0  0  0  0  0  0  0  0  0
   39.0160   28.7520   53.6420 O   0  0  0  0  0  0  0  0  0  0  0  0
   38.2460   28.2670   54.5850 C   0  0  0  0  0  0  0  0  0  0  0  0
   37.3830   27.4940   53.8300 C   0  0  0  0  0  0  0  0  0  0  0  0
   37.0820   28.1620   52.6040 O   0  0  0  0  0  0  0  0  0  0  0  0
   37.9460   27.9560   50.5600 H   0  0  0  0  0  0  0  0  0  0  0  0
   39.4195   26.5274   52.3809 H   0  0  0  0  0  0  0  0  0  0  0  0
   40.4054   27.7103   51.5545 H   0  0  0  0  0  0  0  0  0  0  0  0
   38.7192   29.4360   51.8706 H   0  0  0  0  0  0  0  0  0  0  0  0
   38.8159   27.6577   55.3019 H   0  0  0  0  0  0  0  0  0  0  0  0
   37.7542   29.0255   55.2118 H   0  0  0  0  0  0  0  0  0  0  0  0
   37.8565   26.5255   53.6115 H   0  0  0  0  0  0  0  0  0  0  0  0
   36.4523   27.3327   54.3937 H   0  0  0  0  0  0  0  0  0  0  0  0
  1  2  1  0
  2  3  1  0
  3  4  1  0
  4  5  1  0
  5  6  1  0
  6  7  1  0
  7  3  1  0
  1  8  1  0
  2  9  1  0
  2 10  1  0
  3 11  1  0
  5 12  1  0
  5 13  1  0
  6 14  1  0
  6 15  1  0
M  END
>  <ID>  (24) 
Pocket2Mol_30_0

>  <docking_score>  (24) 
-3.89

$$$$
Pocket2Mol_31
     RDKit          3D

 10  9  0  0  0  0  0  0  0  0999 V2000
   37.2550   34.9370   47.9670 O   0  0  0  0  0  0  0  0  0  0  0  0
   38.4320   34.6680   48.0550 C   0  0  0  0  0  0  0  0  0  0  0  0
   39.2190   35.6110   47.3630 C   0  0  0  0  0  0  0  0  0  0  0  0
   38.7890   35.9040   46.2690 O   0  0  0  0  0  0  0  0  0  0  0  0
   37.1000   35.4880   47.1590 H   0  0  0  0  0  0  0  0  0  0  0  0
   38.7223   34.6666   49.1160 H   0  0  0  0  0  0  0  0  0  0  0  0
   38.5992   33.6768   47.6083 H   0  0  0  0  0  0  0  0  0  0  0  0
   39.2743   36.5270   47.9696 H   0  0  0  0  0  0  0  0  0  0  0  0
   40.2040   35.1479   47.2041 H   0  0  0  0  0  0  0  0  0  0  0  0
   38.4890   35.0840   45.8020 H   0  0  0  0  0  0  0  0  0  0  0  0
  1  2  1  0
  2  3  1  0
  3  4  1  0
  1  5  1  0
  2  6  1  0
  2  7  1  0
  3  8  1  0
  3  9  1  0
  4 10  1  0
M  END
>  <ID>  (25) 
Pocket2Mol_31_0

>  <docking_score>  (25) 
-3.466

$$$$
Pocket2Mol_32
     RDKit          3D

 12 12  0  0  0  0  0  0  0  0999 V2000
   41.1150   30.5940   49.8160 F   0  0  0  0  0  0  0  0  0  0  0  0
   40.3190   29.8740   50.7880 C   0  0  0  0  0  0  0  0  0  0  0  0
   39.8150   28.6320   50.6510 C   0  0  0  0  0  0  0  0  0  0  0  0
   39.2520   27.9600   51.3960 C   0  0  0  0  0  0  0  0  0  0  0  0
   38.9990   28.4670   52.5910 C   0  0  0  0  0  0  0  0  0  0  0  0
   39.3750   29.8220   52.9400 C   0  0  0  0  0  0  0  0  0  0  0  0
   40.0640   30.4980   52.0100 C   0  0  0  0  0  0  0  0  0  0  0  0
   39.9678   28.1844   49.6579 H   0  0  0  0  0  0  0  0  0  0  0  0
   38.9380   26.9408   51.1263 H   0  0  0  0  0  0  0  0  0  0  0  0
   38.4894   27.8432   53.3401 H   0  0  0  0  0  0  0  0  0  0  0  0
   39.1109   30.2690   53.9098 H   0  0  0  0  0  0  0  0  0  0  0  0
   40.4200   31.5203   52.2053 H   0  0  0  0  0  0  0  0  0  0  0  0
  1  2  1  0
  2  3  2  0
  3  4  1  0
  4  5  2  0
  5  6  1  0
  6  7  2  0
  7  2  1  0
  3  8  1  0
  4  9  1  0
  5 10  1  0
  6 11  1  0
  7 12  1  0
M  END
>  <ID>  (26) 
Pocket2Mol_32_0

>  <docking_score>  (26) 
-5.438

$$$$
Pocket2Mol_33
     RDKit          3D

 17 17  0  0  0  0  0  0  0  0999 V2000
   40.2760   30.3690   50.7250 C   0  0  0  0  0  0  0  0  0  0  0  0
   40.1690   29.1330   50.1970 C   0  0  0  0  0  0  0  0  0  0  0  0
   39.9130   28.2160   51.1680 O   0  0  0  0  0  0  0  0  0  0  0  0
   38.6770   28.3110   51.7830 C   0  0  0  0  0  0  0  0  0  0  0  0
   39.0170   28.7550   53.2040 C   0  0  0  0  0  0  0  0  0  0  0  0
   39.5630   29.9790   53.1520 O   0  0  0  0  0  0  0  0  0  0  0  0
   39.9010   30.5280   52.0450 C   0  0  0  0  0  0  0  0  0  0  0  0
   41.3296   30.6740   50.6416 H   0  0  0  0  0  0  0  0  0  0  0  0
   39.5649   30.9833   50.1531 H   0  0  0  0  0  0  0  0  0  0  0  0
   39.3478   29.1228   49.4652 H   0  0  0  0  0  0  0  0  0  0  0  0
   41.1195   28.8740   49.7077 H   0  0  0  0  0  0  0  0  0  0  0  0
   38.0439   29.0563   51.2794 H   0  0  0  0  0  0  0  0  0  0  0  0
   38.1109   27.3683   51.7534 H   0  0  0  0  0  0  0  0  0  0  0  0
   38.1009   28.7837   53.8122 H   0  0  0  0  0  0  0  0  0  0  0  0
   39.7255   28.0471   53.6589 H   0  0  0  0  0  0  0  0  0  0  0  0
   39.0297   31.1840   51.9017 H   0  0  0  0  0  0  0  0  0  0  0  0
   40.9573   30.4571   52.3435 H   0  0  0  0  0  0  0  0  0  0  0  0
  1  2  1  0
  2  3  1  0
  3  4  1  0
  4  5  1  0
  5  6  1  0
  6  7  1  0
  7  1  1  0
  1  8  1  0
  1  9  1  0
  2 10  1  0
  2 11  1  0
  4 12  1  0
  4 13  1  0
  5 14  1  0
  5 15  1  0
  7 16  1  0
  7 17  1  0
M  END
>  <ID>  (27) 
Pocket2Mol_33_0

>  <docking_score>  (27) 
-4.112

$$$$
Pocket2Mol_34
     RDKit          3D

 19 19  0  0  0  0  0  0  0  0999 V2000
   38.6620   27.1680   51.0600 O   0  0  0  0  0  0  0  0  0  0  0  0
   39.1610   28.2030   51.2570 C   0  0  0  0  0  0  0  0  0  0  0  0
   39.8400   28.9360   50.3130 C   0  0  0  0  0  0  0  0  0  0  0  0
   39.9710   30.3520   50.6840 C   0  0  0  0  0  0  0  0  0  0  0  0
   40.2570   30.4910   51.9490 C   0  0  0  0  0  0  0  0  0  0  0  0
   39.3070   29.8260   52.7750 C   0  0  0  0  0  0  0  0  0  0  0  0
   39.2270   28.5800   52.4890 C   0  0  0  0  0  0  0  0  0  0  0  0
   39.3630   26.4940   50.8750 H   0  0  0  0  0  0  0  0  0  0  0  0
   38.3835   28.6169   50.5981 H   0  0  0  0  0  0  0  0  0  0  0  0
   40.8465   28.5089   50.1922 H   0  0  0  0  0  0  0  0  0  0  0  0
   39.2642   28.8887   49.3769 H   0  0  0  0  0  0  0  0  0  0  0  0
   40.7738   30.8057   50.0843 H   0  0  0  0  0  0  0  0  0  0  0  0
   39.0089   30.8493   50.4914 H   0  0  0  0  0  0  0  0  0  0  0  0
   41.2542   30.0672   52.1386 H   0  0  0  0  0  0  0  0  0  0  0  0
   40.2346   31.5636   52.1920 H   0  0  0  0  0  0  0  0  0  0  0  0
   39.6112   29.9325   53.8267 H   0  0  0  0  0  0  0  0  0  0  0  0
   38.3212   30.2833   52.6043 H   0  0  0  0  0  0  0  0  0  0  0  0
   40.1160   28.0975   52.9213 H   0  0  0  0  0  0  0  0  0  0  0  0
   38.2462   28.2905   52.8944 H   0  0  0  0  0  0  0  0  0  0  0  0
  1  2  1  0
  2  3  1  0
  3  4  1  0
  4  5  1  0
  5  6  1  0
  6  7  1  0
  7  2  1  0
  1  8  1  0
  2  9  1  0
  3 10  1  0
  3 11  1  0
  4 12  1  0
  4 13  1  0
  5 14  1  0
  5 15  1  0
  6 16  1  0
  6 17  1  0
  7 18  1  0
  7 19  1  0
M  END
>  <ID>  (28) 
Pocket2Mol_34_0

>  <docking_score>  (28) 
-5.259

$$$$
Pocket2Mol_35
     RDKit          3D

 11 11  0  0  0  0  0  0  0  0999 V2000
   37.8590   27.6110   51.8910 O   0  0  0  0  0  0  0  0  0  0  0  0
   38.9300   28.4060   51.8590 C   0  0  0  0  0  0  0  0  0  0  0  0
   39.6450   28.4370   50.5940 C   0  0  0  0  0  0  0  0  0  0  0  0
   40.1600   29.5160   50.2790 C   0  0  0  0  0  0  0  0  0  0  0  0
   40.2580   30.4800   51.1550 C   0  0  0  0  0  0  0  0  0  0  0  0
   39.8070   30.4810   52.5260 C   0  0  0  0  0  0  0  0  0  0  0  0
   39.1980   29.1950   52.7800 O   0  0  0  0  0  0  0  0  0  0  0  0
   39.7238   27.5479   49.9511 H   0  0  0  0  0  0  0  0  0  0  0  0
   40.5373   29.6648   49.2565 H   0  0  0  0  0  0  0  0  0  0  0  0
   40.7432   31.4032   50.8053 H   0  0  0  0  0  0  0  0  0  0  0  0
   39.9080   31.3076   53.2447 H   0  0  0  0  0  0  0  0  0  0  0  0
  1  2  2  0
  2  3  1  0
  3  4  2  0
  4  5  1  0
  5  6  2  0
  6  7  1  0
  7  2  1  0
  3  8  1  0
  4  9  1  0
  5 10  1  0
  6 11  1  0
M  END
>  <ID>  (29) 
Pocket2Mol_35_0

>  <docking_score>  (29) 
-5.254

$$$$
Pocket2Mol_36
     RDKit          3D

 17 17  0  0  0  0  0  0  0  0999 V2000
   38.1370   27.5370   52.1300 O   0  0  0  0  0  0  0  0  0  0  0  0
   39.0610   28.3720   51.5980 C   0  0  0  0  0  0  0  0  0  0  0  0
   39.3640   29.3850   52.4200 C   0  0  0  0  0  0  0  0  0  0  0  0
   40.0460   30.5760   51.9500 C   0  0  0  0  0  0  0  0  0  0  0  0
   40.5350   30.2170   50.7940 C   0  0  0  0  0  0  0  0  0  0  0  0
   39.8350   29.0960   50.2690 C   0  0  0  0  0  0  0  0  0  0  0  0
   39.6610   27.9720   50.8710 C   0  0  0  0  0  0  0  0  0  0  0  0
   37.6680   27.7860   52.9650 H   0  0  0  0  0  0  0  0  0  0  0  0
   39.0877   29.3118   53.4822 H   0  0  0  0  0  0  0  0  0  0  0  0
   39.3407   31.4122   51.8349 H   0  0  0  0  0  0  0  0  0  0  0  0
   40.8190   30.9283   52.6489 H   0  0  0  0  0  0  0  0  0  0  0  0
   40.4472   31.0576   50.0899 H   0  0  0  0  0  0  0  0  0  0  0  0
   41.5899   29.9375   50.9320 H   0  0  0  0  0  0  0  0  0  0  0  0
   38.8232   29.4647   50.0446 H   0  0  0  0  0  0  0  0  0  0  0  0
   40.5360   28.7845   49.4806 H   0  0  0  0  0  0  0  0  0  0  0  0
   39.1481   27.2230   50.2499 H   0  0  0  0  0  0  0  0  0  0  0  0
   40.5509   27.4062   51.1839 H   0  0  0  0  0  0  0  0  0  0  0  0
  1  2  1  0
  2  3  2  0
  3  4  1  0
  4  5  1  0
  5  6  1  0
  6  7  1  0
  7  2  1  0
  1  8  1  0
  3  9  1  0
  4 10  1  0
  4 11  1  0
  5 12  1  0
  5 13  1  0
  6 14  1  0
  6 15  1  0
  7 16  1  0
  7 17  1  0
M  END
>  <ID>  (30) 
Pocket2Mol_36_0

>  <docking_score>  (30) 
-5.471

$$$$
Pocket2Mol_37
     RDKit          3D

 15 15  0  0  0  0  0  0  0  0999 V2000
   39.0260   27.8410   51.0530 C   0  0  0  0  0  0  0  0  0  0  0  0
   38.4100   28.1630   52.3200 C   0  0  0  0  0  0  0  0  0  0  0  0
   39.2000   28.5750   53.2690 O   0  0  0  0  0  0  0  0  0  0  0  0
   39.3830   30.1070   53.2100 C   0  0  0  0  0  0  0  0  0  0  0  0
   40.1570   30.7210   51.9940 O   0  0  0  0  0  0  0  0  0  0  0  0
   39.9850   29.9320   50.7750 C   0  0  0  0  0  0  0  0  0  0  0  0
   40.1500   28.7370   51.0440 O   0  0  0  0  0  0  0  0  0  0  0  0
   39.3496   26.7902   51.0192 H   0  0  0  0  0  0  0  0  0  0  0  0
   38.3563   27.9534   50.1876 H   0  0  0  0  0  0  0  0  0  0  0  0
   37.6680   28.9544   52.1377 H   0  0  0  0  0  0  0  0  0  0  0  0
   37.9914   27.2139   52.6859 H   0  0  0  0  0  0  0  0  0  0  0  0
   38.3782   30.5545   53.2148 H   0  0  0  0  0  0  0  0  0  0  0  0
   40.0193   30.3359   54.0776 H   0  0  0  0  0  0  0  0  0  0  0  0
   38.9709   30.0841   50.3769 H   0  0  0  0  0  0  0  0  0  0  0  0
   40.7196   30.2485   50.0199 H   0  0  0  0  0  0  0  0  0  0  0  0
  1  2  1  0
  2  3  1  0
  3  4  1  0
  4  5  1  0
  5  6  1  0
  6  7  1  0
  7  1  1  0
  1  8  1  0
  1  9  1  0
  2 10  1  0
  2 11  1  0
  4 12  1  0
  4 13  1  0
  6 14  1  0
  6 15  1  0
M  END
>  <ID>  (31) 
Pocket2Mol_37_0

>  <docking_score>  (31) 
-3.817

$$$$
Pocket2Mol_38
     RDKit          3D

 12 12  0  0  0  0  0  0  0  0999 V2000
   40.3630   30.2510   50.2130 C   0  0  0  0  0  0  0  0  0  0  0  0
   39.7750   29.6840   51.4690 C   0  0  0  0  0  0  0  0  0  0  0  0
   39.7910   30.4440   52.6170 C   0  0  0  0  0  0  0  0  0  0  0  0
   39.2740   29.8990   53.5860 C   0  0  0  0  0  0  0  0  0  0  0  0
   38.6730   28.7100   53.2900 N   0  0  0  0  0  0  0  0  0  0  0  0
   38.7850   28.3870   51.8280 C   0  0  0  0  0  0  0  0  0  0  0  0
   38.4820   27.6040   51.1090 O   0  0  0  0  0  0  0  0  0  0  0  0
   41.1327   30.9932   50.4710 H   0  0  0  0  0  0  0  0  0  0  0  0
   40.8174   29.4415   49.6229 H   0  0  0  0  0  0  0  0  0  0  0  0
   39.5705   30.7345   49.6229 H   0  0  0  0  0  0  0  0  0  0  0  0
   40.2293   31.4520   52.6610 H   0  0  0  0  0  0  0  0  0  0  0  0
   39.2928   30.3280   54.5987 H   0  0  0  0  0  0  0  0  0  0  0  0
  1  2  1  0
  2  3  2  0
  3  4  1  0
  4  5  2  0
  5  6  1  0
  6  7  2  0
  6  2  1  0
  1  8  1  0
  1  9  1  0
  1 10  1  0
  3 11  1  0
  4 12  1  0
M  END
>  <ID>  (32) 
Pocket2Mol_38_0

>  <docking_score>  (32) 
-5.111

$$$$
Pocket2Mol_39
     RDKit          3D

 15 15  0  0  0  0  0  0  0  0999 V2000
   37.9960   27.2050   53.8880 C   0  0  0  0  0  0  0  0  0  0  0  0
   38.7240   28.0450   52.8460 C   0  0  0  0  0  0  0  0  0  0  0  0
   38.9150   27.4450   51.6160 C   0  0  0  0  0  0  0  0  0  0  0  0
   39.4850   28.1970   50.7540 C   0  0  0  0  0  0  0  0  0  0  0  0
   39.9250   29.3790   51.1930 C   0  0  0  0  0  0  0  0  0  0  0  0
   40.6820   30.3800   50.2730 C   0  0  0  0  0  0  0  0  0  0  0  0
   39.1590   29.4480   53.0060 S   0  0  0  0  0  0  0  0  0  0  0  0
   38.2853   27.5388   54.8954 H   0  0  0  0  0  0  0  0  0  0  0  0
   36.9098   27.3231   53.7605 H   0  0  0  0  0  0  0  0  0  0  0  0
   38.2673   26.1466   53.7605 H   0  0  0  0  0  0  0  0  0  0  0  0
   38.6043   26.4125   51.3982 H   0  0  0  0  0  0  0  0  0  0  0  0
   39.6068   27.8869   49.7057 H   0  0  0  0  0  0  0  0  0  0  0  0
   41.2302   31.1049   50.8926 H   0  0  0  0  0  0  0  0  0  0  0  0
   41.3918   29.8296   49.6380 H   0  0  0  0  0  0  0  0  0  0  0  0
   39.9591   30.9131   49.6380 H   0  0  0  0  0  0  0  0  0  0  0  0
  1  2  1  0
  2  3  2  0
  3  4  1  0
  4  5  2  0
  5  6  1  0
  5  7  1  0
  7  2  1  0
  1  8  1  0
  1  9  1  0
  1 10  1  0
  3 11  1  0
  4 12  1  0
  6 13  1  0
  6 14  1  0
  6 15  1  0
M  END
>  <ID>  (33) 
Pocket2Mol_39_0

>  <docking_score>  (33) 
-5.104

$$$$
Pocket2Mol_3
     RDKit          3D

 13 13  0  0  0  0  0  0  0  0999 V2000
   40.2730   30.4580   50.1270 C   0  0  0  0  0  0  0  0  0  0  0  0
   39.9290   29.3250   49.8600 N   0  0  0  0  0  0  0  0  0  0  0  0
   39.4770   28.3800   50.7710 C   0  0  0  0  0  0  0  0  0  0  0  0
   39.5870   29.1880   51.8970 C   0  0  0  0  0  0  0  0  0  0  0  0
   40.1590   30.4330   51.5720 C   0  0  0  0  0  0  0  0  0  0  0  0
   40.5841   31.2750   49.4594 H   0  0  0  0  0  0  0  0  0  0  0  0
   39.9740   29.0400   48.8720 H   0  0  0  0  0  0  0  0  0  0  0  0
   38.4415   28.0645   50.5755 H   0  0  0  0  0  0  0  0  0  0  0  0
   40.0073   27.4165   50.7947 H   0  0  0  0  0  0  0  0  0  0  0  0
   38.5853   29.3522   52.3209 H   0  0  0  0  0  0  0  0  0  0  0  0
   40.2372   28.6840   52.6272 H   0  0  0  0  0  0  0  0  0  0  0  0
   39.5119   31.2524   51.9182 H   0  0  0  0  0  0  0  0  0  0  0  0
   41.1387   30.5635   52.0548 H   0  0  0  0  0  0  0  0  0  0  0  0
  1  2  2  0
  2  3  1  0
  3  4  1  0
  4  5  1  0
  5  1  1  0
  1  6  1  0
  2  7  1  0
  3  8  1  0
  3  9  1  0
  4 10  1  0
  4 11  1  0
  5 12  1  0
  5 13  1  0
M  CHG  1   2   1
M  END
>  <ID>  (34) 
Pocket2Mol_3_0

>  <docking_score>  (34) 
-3.704

$$$$
Pocket2Mol_40
     RDKit          3D

 10  9  0  0  0  0  0  0  0  0999 V2000
   39.0520   35.5160   46.6260 C   0  0  0  0  0  0  0  0  0  0  0  0
   37.9890   35.0030   47.4600 O   0  0  0  0  0  0  0  0  0  0  0  0
   38.2160   34.5090   48.5770 C   0  0  0  0  0  0  0  0  0  0  0  0
   38.4340   33.3040   48.8100 O   0  0  0  0  0  0  0  0  0  0  0  0
   37.6540   35.2180   49.7490 C   0  0  0  0  0  0  0  0  0  0  0  0
   36.5520   34.6430   50.2530 O   0  0  0  0  0  0  0  0  0  0  0  0
   37.8930   36.5920   49.8780 O   0  0  0  0  0  0  0  0  0  0  0  0
   39.8607   35.9063   47.2614 H   0  0  0  0  0  0  0  0  0  0  0  0
   39.4426   34.7072   45.9909 H   0  0  0  0  0  0  0  0  0  0  0  0
   38.6618   36.3250   45.9909 H   0  0  0  0  0  0  0  0  0  0  0  0
  1  2  1  0
  2  3  1  0
  3  4  2  0
  3  5  1  0
  5  6  2  0
  5  7  1  0
  1  8  1  0
  1  9  1  0
  1 10  1  0
M  CHG  1   7  -1
M  END
>  <ID>  (35) 
Pocket2Mol_40_0

>  <docking_score>  (35) 
-4.087

$$$$
Pocket2Mol_41
     RDKit          3D

 15 15  0  0  0  0  0  0  0  0999 V2000
   40.1760   30.4440   50.7210 C   0  0  0  0  0  0  0  0  0  0  0  0
   40.1610   29.2100   50.1760 C   0  0  0  0  0  0  0  0  0  0  0  0
   39.9550   28.2650   51.1320 O   0  0  0  0  0  0  0  0  0  0  0  0
   38.7070   28.2670   51.7310 C   0  0  0  0  0  0  0  0  0  0  0  0
   38.9960   28.7140   53.1620 C   0  0  0  0  0  0  0  0  0  0  0  0
   39.4580   29.9730   53.1330 O   0  0  0  0  0  0  0  0  0  0  0  0
   39.9160   30.5150   52.1630 C   0  0  0  0  0  0  0  0  0  0  0  0
   40.3717   31.3440   50.1195 H   0  0  0  0  0  0  0  0  0  0  0  0
   40.2968   28.9974   49.1053 H   0  0  0  0  0  0  0  0  0  0  0  0
   38.0310   28.9739   51.2277 H   0  0  0  0  0  0  0  0  0  0  0  0
   38.2078   27.2880   51.6817 H   0  0  0  0  0  0  0  0  0  0  0  0
   38.0717   28.6723   53.7569 H   0  0  0  0  0  0  0  0  0  0  0  0
   39.7446   28.0499   53.6188 H   0  0  0  0  0  0  0  0  0  0  0  0
   39.3479   31.4563   52.1975 H   0  0  0  0  0  0  0  0  0  0  0  0
   40.8864   30.0350   52.3577 H   0  0  0  0  0  0  0  0  0  0  0  0
  1  2  2  0
  2  3  1  0
  3  4  1  0
  4  5  1  0
  5  6  1  0
  6  7  1  0
  7  1  1  0
  1  8  1  0
  2  9  1  0
  4 10  1  0
  4 11  1  0
  5 12  1  0
  5 13  1  0
  7 14  1  0
  7 15  1  0
M  END
>  <ID>  (36) 
Pocket2Mol_41_0

>  <docking_score>  (36) 
-4.132

$$$$
Pocket2Mol_42
     RDKit          3D

 10  9  0  0  0  0  0  0  0  0999 V2000
   37.7660   34.3190   48.8840 C   0  0  0  0  0  0  0  0  0  0  0  0
   37.8520   34.9790   47.8070 O   0  0  0  0  0  0  0  0  0  0  0  0
   38.9960   35.3610   47.3160 C   0  0  0  0  0  0  0  0  0  0  0  0
   38.7960   36.0010   46.0740 O   0  0  0  0  0  0  0  0  0  0  0  0
   37.8551   35.0027   49.7411 H   0  0  0  0  0  0  0  0  0  0  0  0
   36.7935   33.8065   48.9233 H   0  0  0  0  0  0  0  0  0  0  0  0
   38.5747   33.5744   48.9233 H   0  0  0  0  0  0  0  0  0  0  0  0
   39.4768   36.0619   48.0142 H   0  0  0  0  0  0  0  0  0  0  0  0
   39.6397   34.4809   47.1704 H   0  0  0  0  0  0  0  0  0  0  0  0
   38.4390   36.9120   46.2270 H   0  0  0  0  0  0  0  0  0  0  0  0
  1  2  1  0
  2  3  1  0
  3  4  1  0
  1  5  1  0
  1  6  1  0
  1  7  1  0
  3  8  1  0
  3  9  1  0
  4 10  1  0
M  END
>  <ID>  (37) 
Pocket2Mol_42_0

>  <docking_score>  (37) 
-3.376

$$$$
Pocket2Mol_43
     RDKit          3D

 15 15  0  0  0  0  0  0  0  0999 V2000
   37.9080   27.5370   52.4580 O   0  0  0  0  0  0  0  0  0  0  0  0
   38.8070   28.3970   51.9740 C   0  0  0  0  0  0  0  0  0  0  0  0
   39.3920   28.0660   50.6930 C   0  0  0  0  0  0  0  0  0  0  0  0
   40.0040   29.3500   50.0870 C   0  0  0  0  0  0  0  0  0  0  0  0
   40.7820   30.3280   51.1130 C   0  0  0  0  0  0  0  0  0  0  0  0
   39.7510   30.5340   52.2160 C   0  0  0  0  0  0  0  0  0  0  0  0
   39.3950   29.2180   52.6950 O   0  0  0  0  0  0  0  0  0  0  0  0
   40.1780   27.3085   50.8286 H   0  0  0  0  0  0  0  0  0  0  0  0
   38.6216   27.6616   50.0200 H   0  0  0  0  0  0  0  0  0  0  0  0
   40.7185   29.0451   49.3082 H   0  0  0  0  0  0  0  0  0  0  0  0
   39.1492   29.9349   49.7165 H   0  0  0  0  0  0  0  0  0  0  0  0
   41.6928   29.8509   51.5039 H   0  0  0  0  0  0  0  0  0  0  0  0
   41.1244   31.2659   50.6513 H   0  0  0  0  0  0  0  0  0  0  0  0
   40.1821   31.1319   53.0325 H   0  0  0  0  0  0  0  0  0  0  0  0
   38.8687   31.0731   51.8405 H   0  0  0  0  0  0  0  0  0  0  0  0
  1  2  2  0
  2  3  1  0
  3  4  1  0
  4  5  1  0
  5  6  1  0
  6  7  1  0
  7  2  1  0
  3  8  1  0
  3  9  1  0
  4 10  1  0
  4 11  1  0
  5 12  1  0
  5 13  1  0
  6 14  1  0
  6 15  1  0
M  END
>  <ID>  (38) 
Pocket2Mol_43_0

>  <docking_score>  (38) 
-4.792

$$$$
Pocket2Mol_44
     RDKit          3D

 12 11  0  0  0  0  0  0  0  0999 V2000
   37.0970   35.1160   50.1700 C   0  0  0  0  0  0  0  0  0  0  0  0
   37.1240   34.9760   48.7320 O   0  0  0  0  0  0  0  0  0  0  0  0
   38.0930   34.4710   48.1430 C   0  0  0  0  0  0  0  0  0  0  0  0
   38.7460   33.4810   48.5290 O   0  0  0  0  0  0  0  0  0  0  0  0
   38.8900   35.3680   47.2740 C   0  0  0  0  0  0  0  0  0  0  0  0
   38.7110   35.2870   45.8880 N   0  0  0  0  0  0  0  0  0  0  0  0
   39.2680   36.5070   47.8720 O   0  0  0  0  0  0  0  0  0  0  0  0
   37.2856   34.1382   50.6372 H   0  0  0  0  0  0  0  0  0  0  0  0
   37.8743   35.8283   50.4837 H   0  0  0  0  0  0  0  0  0  0  0  0
   36.1105   35.4881   50.4837 H   0  0  0  0  0  0  0  0  0  0  0  0
   39.2530   35.9000   45.2620 H   0  0  0  0  0  0  0  0  0  0  0  0
   38.0370   34.6150   45.4940 H   0  0  0  0  0  0  0  0  0  0  0  0
  1  2  1  0
  2  3  1  0
  3  4  2  0
  3  5  1  0
  5  6  1  0
  5  7  2  0
  1  8  1  0
  1  9  1  0
  1 10  1  0
  6 11  1  0
  6 12  1  0
M  END
>  <ID>  (39) 
Pocket2Mol_44_0

>  <docking_score>  (39) 
-4.473

$$$$
Pocket2Mol_45
     RDKit          3D

 11 11  0  0  0  0  0  0  0  0999 V2000
   39.1400   27.9430   50.9640 C   0  0  0  0  0  0  0  0  0  0  0  0
   39.7340   29.1380   51.4150 C   0  0  0  0  0  0  0  0  0  0  0  0
   39.3160   29.3780   52.7620 O   0  0  0  0  0  0  0  0  0  0  0  0
   38.2350   28.3650   52.8770 C   0  0  0  0  0  0  0  0  0  0  0  0
   38.0780   27.7260   51.7020 O   0  0  0  0  0  0  0  0  0  0  0  0
   38.8489   28.0439   49.9080 H   0  0  0  0  0  0  0  0  0  0  0  0
   39.8468   27.1043   51.0474 H   0  0  0  0  0  0  0  0  0  0  0  0
   40.8293   29.0436   51.3786 H   0  0  0  0  0  0  0  0  0  0  0  0
   39.4259   29.9757   50.7720 H   0  0  0  0  0  0  0  0  0  0  0  0
   38.5004   27.6354   53.6562 H   0  0  0  0  0  0  0  0  0  0  0  0
   37.2941   28.8685   53.1437 H   0  0  0  0  0  0  0  0  0  0  0  0
  1  2  1  0
  2  3  1  0
  3  4  1  0
  4  5  1  0
  5  1  1  0
  1  6  1  0
  1  7  1  0
  2  8  1  0
  2  9  1  0
  4 10  1  0
  4 11  1  0
M  END
>  <ID>  (40) 
Pocket2Mol_45_0

>  <docking_score>  (40) 
-3.106

$$$$
Pocket2Mol_46
     RDKit          3D

 13 12  0  0  0  0  0  0  0  0999 V2000
   37.0810   34.9030   49.6800 C   0  0  0  0  0  0  0  0  0  0  0  0
   37.3430   34.8520   48.4070 O   0  0  0  0  0  0  0  0  0  0  0  0
   38.5420   34.4940   47.9560 C   0  0  0  0  0  0  0  0  0  0  0  0
   39.1460   35.5960   47.3940 C   0  0  0  0  0  0  0  0  0  0  0  0
   38.7800   35.9260   46.0790 O   0  0  0  0  0  0  0  0  0  0  0  0
   38.0035   34.7234   50.2517 H   0  0  0  0  0  0  0  0  0  0  0  0
   36.6806   35.8959   49.9325 H   0  0  0  0  0  0  0  0  0  0  0  0
   36.3374   34.1327   49.9325 H   0  0  0  0  0  0  0  0  0  0  0  0
   39.1550   34.1199   48.7892 H   0  0  0  0  0  0  0  0  0  0  0  0
   38.4387   33.6974   47.2045 H   0  0  0  0  0  0  0  0  0  0  0  0
   38.9122   36.4624   48.0302 H   0  0  0  0  0  0  0  0  0  0  0  0
   40.2132   35.3361   47.3352 H   0  0  0  0  0  0  0  0  0  0  0  0
   38.1520   36.6900   46.0930 H   0  0  0  0  0  0  0  0  0  0  0  0
  1  2  1  0
  2  3  1  0
  3  4  1  0
  4  5  1  0
  1  6  1  0
  1  7  1  0
  1  8  1  0
  3  9  1  0
  3 10  1  0
  4 11  1  0
  4 12  1  0
  5 13  1  0
M  END
>  <ID>  (41) 
Pocket2Mol_46_0

>  <docking_score>  (41) 
-3.505

$$$$
Pocket2Mol_47
     RDKit          3D

 15 15  0  0  0  0  0  0  0  0999 V2000
   40.5820   30.3410   50.6780 C   0  0  0  0  0  0  0  0  0  0  0  0
   40.1710   29.3260   50.0330 C   0  0  0  0  0  0  0  0  0  0  0  0
   39.4490   28.4170   50.6850 C   0  0  0  0  0  0  0  0  0  0  0  0
   39.7530   28.7690   51.9790 C   0  0  0  0  0  0  0  0  0  0  0  0
   39.9390   30.4430   51.9130 C   0  0  0  0  0  0  0  0  0  0  0  0
   41.6655   30.2477   50.8432 H   0  0  0  0  0  0  0  0  0  0  0  0
   40.3581   31.2437   50.0907 H   0  0  0  0  0  0  0  0  0  0  0  0
   39.5548   29.6961   49.2003 H   0  0  0  0  0  0  0  0  0  0  0  0
   41.0901   28.7923   49.7495 H   0  0  0  0  0  0  0  0  0  0  0  0
   38.3742   28.5188   50.4741 H   0  0  0  0  0  0  0  0  0  0  0  0
   39.6657   27.3712   50.4217 H   0  0  0  0  0  0  0  0  0  0  0  0
   38.9358   28.4930   52.6616 H   0  0  0  0  0  0  0  0  0  0  0  0
   40.6506   28.2578   52.3572 H   0  0  0  0  0  0  0  0  0  0  0  0
   38.9890   30.9964   51.8771 H   0  0  0  0  0  0  0  0  0  0  0  0
   40.4247   30.9758   52.7438 H   0  0  0  0  0  0  0  0  0  0  0  0
  1  2  1  0
  2  3  1  0
  3  4  1  0
  4  5  1  0
  5  1  1  0
  1  6  1  0
  1  7  1  0
  2  8  1  0
  2  9  1  0
  3 10  1  0
  3 11  1  0
  4 12  1  0
  4 13  1  0
  5 14  1  0
  5 15  1  0
M  END
>  <ID>  (42) 
Pocket2Mol_47_0

>  <docking_score>  (42) 
-4.272

$$$$
Pocket2Mol_48
     RDKit          3D

 15 15  0  0  0  0  0  0  0  0999 V2000
   39.5280   29.2100   51.9880 C   0  0  0  0  0  0  0  0  0  0  0  0
   40.0980   30.4690   51.6400 C   0  0  0  0  0  0  0  0  0  0  0  0
   40.4430   30.3710   50.1930 C   0  0  0  0  0  0  0  0  0  0  0  0
   39.8670   29.2840   49.8490 N   0  0  0  0  0  0  0  0  0  0  0  0
   39.5370   28.3970   50.9280 C   0  0  0  0  0  0  0  0  0  0  0  0
   40.1147   28.7563   52.8003 H   0  0  0  0  0  0  0  0  0  0  0  0
   38.4898   29.3620   52.3184 H   0  0  0  0  0  0  0  0  0  0  0  0
   39.3715   31.2779   51.8069 H   0  0  0  0  0  0  0  0  0  0  0  0
   40.9824   30.6970   52.2531 H   0  0  0  0  0  0  0  0  0  0  0  0
   40.0454   31.2281   49.6297 H   0  0  0  0  0  0  0  0  0  0  0  0
   41.5253   30.3773   49.9968 H   0  0  0  0  0  0  0  0  0  0  0  0
   40.4920   28.7810   49.2050 H   0  0  0  0  0  0  0  0  0  0  0  0
   38.9700   29.5590   49.4230 H   0  0  0  0  0  0  0  0  0  0  0  0
   38.5502   27.9359   50.7741 H   0  0  0  0  0  0  0  0  0  0  0  0
   40.2388   27.5561   51.0303 H   0  0  0  0  0  0  0  0  0  0  0  0
  1  2  1  0
  2  3  1  0
  3  4  1  0
  4  5  1  0
  5  1  1  0
  1  6  1  0
  1  7  1  0
  2  8  1  0
  2  9  1  0
  3 10  1  0
  3 11  1  0
  4 12  1  0
  4 13  1  0
  5 14  1  0
  5 15  1  0
M  CHG  1   4   1
M  END
>  <ID>  (43) 
Pocket2Mol_48_0

>  <docking_score>  (43) 
-3.659

$$$$
Pocket2Mol_49
     RDKit          3D

 13 13  0  0  0  0  0  0  0  0999 V2000
   40.5850   30.2210   50.6160 C   0  0  0  0  0  0  0  0  0  0  0  0
   39.6880   28.5900   50.5640 C   0  0  0  0  0  0  0  0  0  0  0  0
   39.4330   28.3300   51.8480 C   0  0  0  0  0  0  0  0  0  0  0  0
   39.5490   29.4400   52.4170 O   0  0  0  0  0  0  0  0  0  0  0  0
   39.9630   30.5090   51.7810 C   0  0  0  0  0  0  0  0  0  0  0  0
   41.6784   30.1326   50.6977 H   0  0  0  0  0  0  0  0  0  0  0  0
   40.5362   30.9169   49.7655 H   0  0  0  0  0  0  0  0  0  0  0  0
   38.7549   28.6734   49.9875 H   0  0  0  0  0  0  0  0  0  0  0  0
   40.2726   27.7965   50.0756 H   0  0  0  0  0  0  0  0  0  0  0  0
   38.4142   27.9337   51.9706 H   0  0  0  0  0  0  0  0  0  0  0  0
   40.1102   27.5705   52.2658 H   0  0  0  0  0  0  0  0  0  0  0  0
   39.0938   31.1480   51.5660 H   0  0  0  0  0  0  0  0  0  0  0  0
   40.6938   31.0156   52.4285 H   0  0  0  0  0  0  0  0  0  0  0  0
  1  2  1  0
  2  3  1  0
  3  4  1  0
  4  5  1  0
  5  1  1  0
  1  6  1  0
  1  7  1  0
  2  8  1  0
  2  9  1  0
  3 10  1  0
  3 11  1  0
  5 12  1  0
  5 13  1  0
M  END
>  <ID>  (44) 
Pocket2Mol_49_0

>  <docking_score>  (44) 
-3.602

$$$$
Pocket2Mol_4
     RDKit          3D

 11 10  0  0  0  0  0  0  0  0999 V2000
   39.1430   35.5160   46.9390 C   0  0  0  0  0  0  0  0  0  0  0  0
   37.9540   35.0100   47.5880 O   0  0  0  0  0  0  0  0  0  0  0  0
   38.0050   34.4380   48.6890 C   0  0  0  0  0  0  0  0  0  0  0  0
   37.2390   34.9880   49.8270 C   0  0  0  0  0  0  0  0  0  0  0  0
   38.5210   33.2900   48.7680 O   0  0  0  0  0  0  0  0  0  0  0  0
   39.8728   35.8266   47.7012 H   0  0  0  0  0  0  0  0  0  0  0  0
   39.5820   34.7267   46.3110 H   0  0  0  0  0  0  0  0  0  0  0  0
   38.8787   36.3796   46.3110 H   0  0  0  0  0  0  0  0  0  0  0  0
   37.6976   34.6587   50.7710 H   0  0  0  0  0  0  0  0  0  0  0  0
   37.2485   36.0869   49.7785 H   0  0  0  0  0  0  0  0  0  0  0  0
   36.2008   34.6278   49.7785 H   0  0  0  0  0  0  0  0  0  0  0  0
  1  2  1  0
  2  3  1  0
  3  4  1  0
  3  5  2  0
  1  6  1  0
  1  7  1  0
  1  8  1  0
  4  9  1  0
  4 10  1  0
  4 11  1  0
M  END
>  <ID>  (45) 
Pocket2Mol_4_0

>  <docking_score>  (45) 
-3.59

$$$$
Pocket2Mol_5
     RDKit          3D

 13 13  0  0  0  0  0  0  0  0999 V2000
   40.2090   29.3260   49.8940 C   0  0  0  0  0  0  0  0  0  0  0  0
   40.4960   30.4510   50.3570 C   0  0  0  0  0  0  0  0  0  0  0  0
   40.0950   30.4260   51.7010 C   0  0  0  0  0  0  0  0  0  0  0  0
   39.5380   29.2050   51.9610 C   0  0  0  0  0  0  0  0  0  0  0  0
   39.6500   28.4520   50.8310 C   0  0  0  0  0  0  0  0  0  0  0  0
   40.3809   29.0486   48.8435 H   0  0  0  0  0  0  0  0  0  0  0  0
   40.9663   31.2884   49.8208 H   0  0  0  0  0  0  0  0  0  0  0  0
   40.9675   30.5829   52.3523 H   0  0  0  0  0  0  0  0  0  0  0  0
   39.3631   31.2245   51.8926 H   0  0  0  0  0  0  0  0  0  0  0  0
   40.0718   28.7182   52.7905 H   0  0  0  0  0  0  0  0  0  0  0  0
   38.4820   29.3155   52.2485 H   0  0  0  0  0  0  0  0  0  0  0  0
   40.3091   27.5879   51.0011 H   0  0  0  0  0  0  0  0  0  0  0  0
   38.6853   28.0392   50.5009 H   0  0  0  0  0  0  0  0  0  0  0  0
  1  2  2  0
  2  3  1  0
  3  4  1  0
  4  5  1  0
  5  1  1  0
  1  6  1  0
  2  7  1  0
  3  8  1  0
  3  9  1  0
  4 10  1  0
  4 11  1  0
  5 12  1  0
  5 13  1  0
M  END
>  <ID>  (46) 
Pocket2Mol_5_0

>  <docking_score>  (46) 
-4.384

$$$$
Pocket2Mol_6
     RDKit          3D

 12 12  0  0  0  0  0  0  0  0999 V2000
   40.1680   29.2430   50.0680 C   0  0  0  0  0  0  0  0  0  0  0  0
   39.6060   28.1670   50.6760 C   0  0  0  0  0  0  0  0  0  0  0  0
   39.1650   28.4320   51.8850 C   0  0  0  0  0  0  0  0  0  0  0  0
   39.4160   29.5560   52.6120 C   0  0  0  0  0  0  0  0  0  0  0  0
   40.0670   30.4850   51.9140 C   0  0  0  0  0  0  0  0  0  0  0  0
   40.5400   30.4150   50.6310 C   0  0  0  0  0  0  0  0  0  0  0  0
   40.3419   29.1502   48.9858 H   0  0  0  0  0  0  0  0  0  0  0  0
   39.5279   27.1759   50.2052 H   0  0  0  0  0  0  0  0  0  0  0  0
   38.5289   27.6691   52.3577 H   0  0  0  0  0  0  0  0  0  0  0  0
   39.1138   29.6829   53.6620 H   0  0  0  0  0  0  0  0  0  0  0  0
   40.2488   31.4349   52.4380 H   0  0  0  0  0  0  0  0  0  0  0  0
   41.1338   31.1954   50.1327 H   0  0  0  0  0  0  0  0  0  0  0  0
  1  2  1  0
  2  3  2  0
  3  4  1  0
  4  5  2  0
  5  6  1  0
  6  1  2  0
  1  7  1  0
  2  8  1  0
  3  9  1  0
  4 10  1  0
  5 11  1  0
  6 12  1  0
M  END
>  <ID>  (47) 
Pocket2Mol_6_0

>  <docking_score>  (47) 
-5.026

$$$$
Pocket2Mol_7
     RDKit          3D

 11 11  0  0  0  0  0  0  0  0999 V2000
   38.3880   27.5680   51.5360 O   0  0  0  0  0  0  0  0  0  0  0  0
   39.0990   28.5330   51.3300 C   0  0  0  0  0  0  0  0  0  0  0  0
   39.8910   28.8850   50.2790 C   0  0  0  0  0  0  0  0  0  0  0  0
   40.4480   30.1070   50.6660 C   0  0  0  0  0  0  0  0  0  0  0  0
   40.1350   30.4620   51.8240 C   0  0  0  0  0  0  0  0  0  0  0  0
   39.3940   29.6080   52.2290 N   0  0  0  0  0  0  0  0  0  0  0  0
   40.6764   28.1330   50.1129 H   0  0  0  0  0  0  0  0  0  0  0  0
   39.3319   28.9562   49.3344 H   0  0  0  0  0  0  0  0  0  0  0  0
   41.5434   30.0204   50.6143 H   0  0  0  0  0  0  0  0  0  0  0  0
   40.0523   30.8702   49.9798 H   0  0  0  0  0  0  0  0  0  0  0  0
   40.4677   31.3644   52.3578 H   0  0  0  0  0  0  0  0  0  0  0  0
  1  2  2  0
  2  3  1  0
  3  4  1  0
  4  5  1  0
  5  6  2  0
  6  2  1  0
  3  7  1  0
  3  8  1  0
  4  9  1  0
  4 10  1  0
  5 11  1  0
M  END
>  <ID>  (48) 
Pocket2Mol_7_0

>  <docking_score>  (48) 
-4.317

$$$$
Pocket2Mol_8
     RDKit          3D

 12 12  0  0  0  0  0  0  0  0999 V2000
   38.9100   28.9660   53.4890 C   0  0  0  0  0  0  0  0  0  0  0  0
   39.4370   29.1500   52.0720 C   0  0  0  0  0  0  0  0  0  0  0  0
   40.0660   30.3530   51.8140 C   0  0  0  0  0  0  0  0  0  0  0  0
   40.5370   30.4510   50.6300 C   0  0  0  0  0  0  0  0  0  0  0  0
   40.2450   29.4560   49.7890 C   0  0  0  0  0  0  0  0  0  0  0  0
   39.3610   28.0880   51.0660 S   0  0  0  0  0  0  0  0  0  0  0  0
   39.6941   29.2398   54.2103 H   0  0  0  0  0  0  0  0  0  0  0  0
   38.0316   29.6106   53.6401 H   0  0  0  0  0  0  0  0  0  0  0  0
   38.6237   27.9147   53.6401 H   0  0  0  0  0  0  0  0  0  0  0  0
   40.1536   31.1552   52.5615 H   0  0  0  0  0  0  0  0  0  0  0  0
   41.1506   31.3098   50.3202 H   0  0  0  0  0  0  0  0  0  0  0  0
   40.4259   29.3828   48.7065 H   0  0  0  0  0  0  0  0  0  0  0  0
  1  2  1  0
  2  3  2  0
  3  4  1  0
  4  5  2  0
  5  6  1  0
  6  2  1  0
  1  7  1  0
  1  8  1  0
  1  9  1  0
  3 10  1  0
  4 11  1  0
  5 12  1  0
M  END
>  <ID>  (49) 
Pocket2Mol_8_0

>  <docking_score>  (49) 
-4.536

$$$$
Pocket2Mol_9
     RDKit          3D

  7  6  0  0  0  0  0  0  0  0999 V2000
   37.2610   34.7370   49.4940 C   0  0  0  0  0  0  0  0  0  0  0  0
   37.9100   34.2000   48.7100 C   0  0  0  0  0  0  0  0  0  0  0  0
   38.5470   33.1300   48.8010 O   0  0  0  0  0  0  0  0  0  0  0  0
   38.1190   34.9460   47.5540 O   0  0  0  0  0  0  0  0  0  0  0  0
   37.5986   34.4577   50.5030 H   0  0  0  0  0  0  0  0  0  0  0  0
   37.3546   35.8253   49.3642 H   0  0  0  0  0  0  0  0  0  0  0  0
   36.2095   34.4413   49.3642 H   0  0  0  0  0  0  0  0  0  0  0  0
  1  2  1  0
  2  3  2  0
  2  4  1  0
  1  5  1  0
  1  6  1  0
  1  7  1  0
M  CHG  1   4  -1
M  END
>  <ID>  (50) 
Pocket2Mol_9_0

>  <docking_score>  (50) 
-3.225

$$$$
