Pocket2Mol_0_num_sample_50
     RDKit          3D

 15 14  0  0  0  0  0  0  0  0999 V2000
   40.5360   30.3350   50.0900 C   0  0  0  0  0  0  0  0  0  0  0  0
   40.1310   30.3970   51.4150 C   0  0  0  0  0  0  0  0  0  0  0  0
   39.6390   29.2290   51.8220 C   0  0  0  0  0  0  0  0  0  0  0  0
   39.5330   28.1780   50.7340 C   0  0  0  0  0  0  0  0  0  0  0  0
   38.6230   27.1550   51.1120 O   0  0  0  0  0  0  0  0  0  0  0  0
   41.6225   30.1687   50.0461 H   0  0  0  0  0  0  0  0  0  0  0  0
   40.0175   29.5058   49.5865 H   0  0  0  0  0  0  0  0  0  0  0  0
   40.2893   31.2814   49.5865 H   0  0  0  0  0  0  0  0  0  0  0  0
   40.9950   30.6609   52.0426 H   0  0  0  0  0  0  0  0  0  0  0  0
   39.3415   31.1579   51.5032 H   0  0  0  0  0  0  0  0  0  0  0  0
   40.2936   28.8380   52.6149 H   0  0  0  0  0  0  0  0  0  0  0  0
   38.6136   29.4251   52.1686 H   0  0  0  0  0  0  0  0  0  0  0  0
   39.1786   28.6523   49.8069 H   0  0  0  0  0  0  0  0  0  0  0  0
   40.5250   27.7292   50.5776 H   0  0  0  0  0  0  0  0  0  0  0  0
   37.8560   27.1490   50.4870 H   0  0  0  0  0  0  0  0  0  0  0  0
  1  2  1  0
  2  3  1  0
  3  4  1  0
  4  5  1  0
  1  6  1  0
  1  7  1  0
  1  8  1  0
  2  9  1  0
  2 10  1  0
  3 11  1  0
  3 12  1  0
  4 13  1  0
  4 14  1  0
  5 15  1  0
M  END

>  <ID>
Pocket2Mol_0_num_sample_50

>  <docking_score>
-3.968

$$$$
Pocket2Mol_10_num_sample_50
     RDKit          3D

 14 14  0  0  0  0  0  0  0  0999 V2000
   37.1740   28.2390   53.5890 C   0  0  0  0  0  0  0  0  0  0  0  0
   37.7400   26.9870   54.2980 C   0  0  0  0  0  0  0  0  0  0  0  0
   39.2270   26.9490   53.9030 O   0  0  0  0  0  0  0  0  0  0  0  0
   39.5290   27.1040   52.4760 C   0  0  0  0  0  0  0  0  0  0  0  0
   38.7060   28.3030   51.7620 C   0  0  0  0  0  0  0  0  0  0  0  0
   37.5370   28.0590   52.2020 O   0  0  0  0  0  0  0  0  0  0  0  0
   36.0810   28.2901   53.7022 H   0  0  0  0  0  0  0  0  0  0  0  0
   37.5707   29.1750   54.0090 H   0  0  0  0  0  0  0  0  0  0  0  0
   37.6312   27.0772   55.3889 H   0  0  0  0  0  0  0  0  0  0  0  0
   37.2094   26.0690   54.0053 H   0  0  0  0  0  0  0  0  0  0  0  0
   40.6044   27.3093   52.3690 H   0  0  0  0  0  0  0  0  0  0  0  0
   39.2286   26.1689   51.9807 H   0  0  0  0  0  0  0  0  0  0  0  0
   39.0649   29.2922   52.0824 H   0  0  0  0  0  0  0  0  0  0  0  0
   38.7917   28.3361   50.6658 H   0  0  0  0  0  0  0  0  0  0  0  0
  1  2  1  0
  2  3  1  0
  3  4  1  0
  4  5  1  0
  5  6  1  0
  6  1  1  0
  1  7  1  0
  1  8  1  0
  2  9  1  0
  2 10  1  0
  4 11  1  0
  4 12  1  0
  5 13  1  0
  5 14  1  0
M  END

>  <ID>
Pocket2Mol_10_num_sample_50

>  <docking_score>
-3.458

$$$$
Pocket2Mol_11_num_sample_50
     RDKit          3D

 11 11  0  0  0  0  0  0  0  0999 V2000
   38.4590   27.4450   51.1850 O   0  0  0  0  0  0  0  0  0  0  0  0
   39.1940   28.4610   51.2430 C   0  0  0  0  0  0  0  0  0  0  0  0
   39.9440   29.1600   50.3950 C   0  0  0  0  0  0  0  0  0  0  0  0
   40.4050   30.1830   50.6510 C   0  0  0  0  0  0  0  0  0  0  0  0
   40.1020   30.5000   51.9230 C   0  0  0  0  0  0  0  0  0  0  0  0
   39.2090   29.2410   52.3120 N   0  0  0  0  0  0  0  0  0  0  0  0
   40.7888   28.5067   50.1316 H   0  0  0  0  0  0  0  0  0  0  0  0
   39.2018   29.4427   49.6339 H   0  0  0  0  0  0  0  0  0  0  0  0
   40.9994   30.8035   49.9643 H   0  0  0  0  0  0  0  0  0  0  0  0
   40.3889   31.3770   52.5219 H   0  0  0  0  0  0  0  0  0  0  0  0
   38.7380   29.0690   53.2120 H   0  0  0  0  0  0  0  0  0  0  0  0
  1  2  2  0
  2  3  1  0
  3  4  1  0
  4  5  2  0
  5  6  1  0
  6  2  1  0
  3  7  1  0
  3  8  1  0
  4  9  1  0
  5 10  1  0
  6 11  1  0
M  END

>  <ID>
Pocket2Mol_11_num_sample_50

>  <docking_score>
-4.486

$$$$
Pocket2Mol_12_num_sample_50
     RDKit          3D

 10 10  0  0  0  0  0  0  0  0999 V2000
   38.4070   27.4550   51.3330 O   0  0  0  0  0  0  0  0  0  0  0  0
   39.1050   28.4410   51.3390 C   0  0  0  0  0  0  0  0  0  0  0  0
   39.1600   29.3140   52.3920 O   0  0  0  0  0  0  0  0  0  0  0  0
   39.9940   30.4140   51.9890 C   0  0  0  0  0  0  0  0  0  0  0  0
   40.2670   30.0790   50.6090 C   0  0  0  0  0  0  0  0  0  0  0  0
   39.7850   28.9130   50.2390 O   0  0  0  0  0  0  0  0  0  0  0  0
   39.4618   31.3731   52.0719 H   0  0  0  0  0  0  0  0  0  0  0  0
   40.8956   30.5425   52.6059 H   0  0  0  0  0  0  0  0  0  0  0  0
   39.8231   30.8561   49.9695 H   0  0  0  0  0  0  0  0  0  0  0  0
   41.3605   30.0205   50.5047 H   0  0  0  0  0  0  0  0  0  0  0  0
  1  2  2  0
  2  3  1  0
  3  4  1  0
  4  5  1  0
  5  6  1  0
  6  2  1  0
  4  7  1  0
  4  8  1  0
  5  9  1  0
  5 10  1  0
M  END

>  <ID>
Pocket2Mol_12_num_sample_50

>  <docking_score>
-3.69

$$$$
Pocket2Mol_13_num_sample_50
     RDKit          3D

 12 12  0  0  0  0  0  0  0  0999 V2000
   38.3210   27.5740   51.4780 O   0  0  0  0  0  0  0  0  0  0  0  0
   39.0660   28.5590   51.4700 C   0  0  0  0  0  0  0  0  0  0  0  0
   39.8440   29.0110   50.3480 C   0  0  0  0  0  0  0  0  0  0  0  0
   40.6050   30.2520   50.8490 C   0  0  0  0  0  0  0  0  0  0  0  0
   39.8810   30.4700   52.0660 C   0  0  0  0  0  0  0  0  0  0  0  0
   39.2750   29.3740   52.4540 O   0  0  0  0  0  0  0  0  0  0  0  0
   40.5498   28.2296   50.0298 H   0  0  0  0  0  0  0  0  0  0  0  0
   39.2107   29.2436   49.4792 H   0  0  0  0  0  0  0  0  0  0  0  0
   41.6687   30.0397   51.0322 H   0  0  0  0  0  0  0  0  0  0  0  0
   40.6379   31.1042   50.1542 H   0  0  0  0  0  0  0  0  0  0  0  0
   40.5831   30.7899   52.8501 H   0  0  0  0  0  0  0  0  0  0  0  0
   39.1223   31.2464   51.8886 H   0  0  0  0  0  0  0  0  0  0  0  0
  1  2  2  0
  2  3  1  0
  3  4  1  0
  4  5  1  0
  5  6  1  0
  6  2  1  0
  3  7  1  0
  3  8  1  0
  4  9  1  0
  4 10  1  0
  5 11  1  0
  5 12  1  0
M  END

>  <ID>
Pocket2Mol_13_num_sample_50

>  <docking_score>
-4.404

$$$$
Pocket2Mol_14_num_sample_50
     RDKit          3D

 18 18  0  0  0  0  0  0  0  0999 V2000
   39.9650   27.6720   51.5950 C   0  0  0  0  0  0  0  0  0  0  0  0
   39.2290   28.4990   51.0260 C   0  0  0  0  0  0  0  0  0  0  0  0
   39.8930   29.2810   50.1530 C   0  0  0  0  0  0  0  0  0  0  0  0
   40.6460   30.1870   50.7290 C   0  0  0  0  0  0  0  0  0  0  0  0
   40.2440   30.3990   51.8140 C   0  0  0  0  0  0  0  0  0  0  0  0
   39.3920   29.7790   51.9130 C   0  0  0  0  0  0  0  0  0  0  0  0
   39.8666   27.7825   52.6850 H   0  0  0  0  0  0  0  0  0  0  0  0
   39.6685   26.6542   51.3014 H   0  0  0  0  0  0  0  0  0  0  0  0
   41.0103   27.8484   51.3014 H   0  0  0  0  0  0  0  0  0  0  0  0
   38.3251   27.9410   50.7404 H   0  0  0  0  0  0  0  0  0  0  0  0
   40.5344   28.6403   49.5300 H   0  0  0  0  0  0  0  0  0  0  0  0
   39.1375   29.8178   49.5606 H   0  0  0  0  0  0  0  0  0  0  0  0
   41.6815   29.8203   50.7868 H   0  0  0  0  0  0  0  0  0  0  0  0
   40.6181   31.1155   50.1398 H   0  0  0  0  0  0  0  0  0  0  0  0
   41.0028   30.1376   52.5662 H   0  0  0  0  0  0  0  0  0  0  0  0
   40.0042   31.4615   51.9675 H   0  0  0  0  0  0  0  0  0  0  0  0
   39.3687   29.4413   52.9596 H   0  0  0  0  0  0  0  0  0  0  0  0
   38.5748   30.4266   51.5626 H   0  0  0  0  0  0  0  0  0  0  0  0
  1  2  1  0
  2  3  1  0
  3  4  1  0
  4  5  1  0
  5  6  1  0
  6  2  1  0
  1  7  1  0
  1  8  1  0
  1  9  1  0
  2 10  1  0
  3 11  1  0
  3 12  1  0
  4 13  1  0
  4 14  1  0
  5 15  1  0
  5 16  1  0
  6 17  1  0
  6 18  1  0
M  END

>  <ID>
Pocket2Mol_14_num_sample_50

>  <docking_score>
-4.727

$$$$
Pocket2Mol_15_num_sample_50
     RDKit          3D

 16 16  0  0  0  0  0  0  0  0999 V2000
   39.5720   31.1570   49.7680 O   0  0  0  0  0  0  0  0  0  0  0  0
   40.5810   30.3600   50.4380 C   0  0  0  0  0  0  0  0  0  0  0  0
   40.2180   30.4670   51.7130 C   0  0  0  0  0  0  0  0  0  0  0  0
   39.5360   29.7070   52.2440 C   0  0  0  0  0  0  0  0  0  0  0  0
   39.2310   28.7130   51.3910 C   0  0  0  0  0  0  0  0  0  0  0  0
   40.0370   28.9640   50.1960 C   0  0  0  0  0  0  0  0  0  0  0  0
   39.9350   31.4970   48.9120 H   0  0  0  0  0  0  0  0  0  0  0  0
   41.6241   30.5877   50.1731 H   0  0  0  0  0  0  0  0  0  0  0  0
   41.1534   30.4876   52.2915 H   0  0  0  0  0  0  0  0  0  0  0  0
   39.5669   31.3529   51.6779 H   0  0  0  0  0  0  0  0  0  0  0  0
   40.0582   29.2931   53.1192 H   0  0  0  0  0  0  0  0  0  0  0  0
   38.6131   30.2067   52.5734 H   0  0  0  0  0  0  0  0  0  0  0  0
   39.4872   27.7374   51.8298 H   0  0  0  0  0  0  0  0  0  0  0  0
   38.1557   28.6877   51.1607 H   0  0  0  0  0  0  0  0  0  0  0  0
   40.8529   28.2315   50.1084 H   0  0  0  0  0  0  0  0  0  0  0  0
   39.4641   28.8781   49.2609 H   0  0  0  0  0  0  0  0  0  0  0  0
  1  2  1  0
  2  3  1  0
  3  4  1  0
  4  5  1  0
  5  6  1  0
  6  2  1  0
  1  7  1  0
  2  8  1  0
  3  9  1  0
  3 10  1  0
  4 11  1  0
  4 12  1  0
  5 13  1  0
  5 14  1  0
  6 15  1  0
  6 16  1  0
M  END

>  <ID>
Pocket2Mol_15_num_sample_50

>  <docking_score>
-4.466

$$$$
Pocket2Mol_16_num_sample_50
     RDKit          3D

 18 18  0  0  0  0  0  0  0  0999 V2000
   40.3360   29.1310   50.2490 C   0  0  0  0  0  0  0  0  0  0  0  0
   39.3670   28.2160   50.5970 C   0  0  0  0  0  0  0  0  0  0  0  0
   39.5490   27.8070   52.0410 C   0  0  0  0  0  0  0  0  0  0  0  0
   39.2500   29.2410   52.7970 C   0  0  0  0  0  0  0  0  0  0  0  0
   39.9980   30.4910   52.1280 C   0  0  0  0  0  0  0  0  0  0  0  0
   39.9930   30.4220   50.5420 C   0  0  0  0  0  0  0  0  0  0  0  0
   41.2602   28.8838   50.7918 H   0  0  0  0  0  0  0  0  0  0  0  0
   40.4655   29.0685   49.1584 H   0  0  0  0  0  0  0  0  0  0  0  0
   38.3729   28.6688   50.4675 H   0  0  0  0  0  0  0  0  0  0  0  0
   39.4550   27.3288   49.9527 H   0  0  0  0  0  0  0  0  0  0  0  0
   38.8266   27.0325   52.3382 H   0  0  0  0  0  0  0  0  0  0  0  0
   40.5278   27.3614   52.2722 H   0  0  0  0  0  0  0  0  0  0  0  0
   38.1666   29.4290   52.7688 H   0  0  0  0  0  0  0  0  0  0  0  0
   39.6337   29.1490   53.8238 H   0  0  0  0  0  0  0  0  0  0  0  0
   39.4917   31.4154   52.4429 H   0  0  0  0  0  0  0  0  0  0  0  0
   41.0462   30.4717   52.4610 H   0  0  0  0  0  0  0  0  0  0  0  0
   38.9937   30.6570   50.1468 H   0  0  0  0  0  0  0  0  0  0  0  0
   40.6853   31.1487   50.0919 H   0  0  0  0  0  0  0  0  0  0  0  0
  1  2  1  0
  2  3  1  0
  3  4  1  0
  4  5  1  0
  5  6  1  0
  6  1  1  0
  1  7  1  0
  1  8  1  0
  2  9  1  0
  2 10  1  0
  3 11  1  0
  3 12  1  0
  4 13  1  0
  4 14  1  0
  5 15  1  0
  5 16  1  0
  6 17  1  0
  6 18  1  0
M  END

>  <ID>
Pocket2Mol_16_num_sample_50

>  <docking_score>
-4.748

$$$$
Pocket2Mol_17_num_sample_50
     RDKit          3D

 10 10  0  0  0  0  0  0  0  0999 V2000
   38.3360   27.5340   51.4870 O   0  0  0  0  0  0  0  0  0  0  0  0
   39.0740   28.5500   51.5580 C   0  0  0  0  0  0  0  0  0  0  0  0
   39.8520   28.9310   50.3150 C   0  0  0  0  0  0  0  0  0  0  0  0
   40.5920   30.2580   50.7050 C   0  0  0  0  0  0  0  0  0  0  0  0
   40.0140   30.4850   51.9720 C   0  0  0  0  0  0  0  0  0  0  0  0
   39.2060   29.4200   52.2890 O   0  0  0  0  0  0  0  0  0  0  0  0
   40.5756   28.1450   50.0533 H   0  0  0  0  0  0  0  0  0  0  0  0
   39.2013   29.0578   49.4372 H   0  0  0  0  0  0  0  0  0  0  0  0
   41.3427   30.8415   50.1519 H   0  0  0  0  0  0  0  0  0  0  0  0
   40.1828   31.3701   52.6029 H   0  0  0  0  0  0  0  0  0  0  0  0
  1  2  2  0
  2  3  1  0
  3  4  1  0
  4  5  2  0
  5  6  1  0
  6  2  1  0
  3  7  1  0
  3  8  1  0
  4  9  1  0
  5 10  1  0
M  END

>  <ID>
Pocket2Mol_17_num_sample_50

>  <docking_score>
-4.411

$$$$
Pocket2Mol_18_num_sample_50
     RDKit          3D

 11 11  0  0  0  0  0  0  0  0999 V2000
   38.9580   27.4470   50.6760 O   0  0  0  0  0  0  0  0  0  0  0  0
   39.4290   28.4530   50.7540 N   0  0  0  0  0  0  0  0  0  0  0  0
   39.5000   29.2920   51.9610 C   0  0  0  0  0  0  0  0  0  0  0  0
   40.0790   30.4690   51.8670 C   0  0  0  0  0  0  0  0  0  0  0  0
   40.5040   30.3590   50.5970 C   0  0  0  0  0  0  0  0  0  0  0  0
   40.1430   29.3600   49.9200 C   0  0  0  0  0  0  0  0  0  0  0  0
   38.0320   27.3080   50.9970 H   0  0  0  0  0  0  0  0  0  0  0  0
   39.0800   28.9439   52.9162 H   0  0  0  0  0  0  0  0  0  0  0  0
   40.1826   31.2853   52.5970 H   0  0  0  0  0  0  0  0  0  0  0  0
   41.1557   31.1278   50.1563 H   0  0  0  0  0  0  0  0  0  0  0  0
   40.3477   29.2111   48.8495 H   0  0  0  0  0  0  0  0  0  0  0  0
  1  2  1  0
  2  3  1  0
  3  4  2  0
  4  5  1  0
  5  6  2  0
  6  2  1  0
  1  7  1  0
  3  8  1  0
  4  9  1  0
  5 10  1  0
  6 11  1  0
M  END

>  <ID>
Pocket2Mol_18_num_sample_50

>  <docking_score>
-4.324

$$$$
Pocket2Mol_19_num_sample_50
     RDKit          3D

 13 13  0  0  0  0  0  0  0  0999 V2000
   38.8380   28.8680   53.3320 C   0  0  0  0  0  0  0  0  0  0  0  0
   39.3430   29.2600   52.2260 N   0  0  0  0  0  0  0  0  0  0  0  0
   40.0690   30.4370   51.7250 C   0  0  0  0  0  0  0  0  0  0  0  0
   40.4840   30.4280   50.4770 C   0  0  0  0  0  0  0  0  0  0  0  0
   40.1260   29.1680   50.1790 C   0  0  0  0  0  0  0  0  0  0  0  0
   39.4580   28.5100   51.0210 C   0  0  0  0  0  0  0  0  0  0  0  0
   39.4023   29.3061   54.1684 H   0  0  0  0  0  0  0  0  0  0  0  0
   37.7877   29.1897   53.3900 H   0  0  0  0  0  0  0  0  0  0  0  0
   38.8891   27.7707   53.3900 H   0  0  0  0  0  0  0  0  0  0  0  0
   40.2599   31.3021   52.3770 H   0  0  0  0  0  0  0  0  0  0  0  0
   40.9702   31.2057   49.8697 H   0  0  0  0  0  0  0  0  0  0  0  0
   40.4111   28.7183   49.2165 H   0  0  0  0  0  0  0  0  0  0  0  0
   39.0300   27.5110   50.8514 H   0  0  0  0  0  0  0  0  0  0  0  0
  1  2  1  0
  2  3  1  0
  3  4  2  0
  4  5  1  0
  5  6  2  0
  6  2  1  0
  1  7  1  0
  1  8  1  0
  1  9  1  0
  3 10  1  0
  4 11  1  0
  5 12  1  0
  6 13  1  0
M  END

>  <ID>
Pocket2Mol_19_num_sample_50

>  <docking_score>
-4.042

$$$$
Pocket2Mol_1_num_sample_50
     RDKit          3D

  9  9  0  0  0  0  0  0  0  0999 V2000
   40.3410   30.2660   50.3660 C   0  0  0  0  0  0  0  0  0  0  0  0
   39.8250   28.7180   50.5110 C   0  0  0  0  0  0  0  0  0  0  0  0
   39.2510   28.5230   51.6610 C   0  0  0  0  0  0  0  0  0  0  0  0
   39.4510   29.6350   52.2500 O   0  0  0  0  0  0  0  0  0  0  0  0
   40.1390   30.4690   51.7060 C   0  0  0  0  0  0  0  0  0  0  0  0
   40.7019   30.8880   49.5336 H   0  0  0  0  0  0  0  0  0  0  0  0
   39.9480   27.9456   49.7375 H   0  0  0  0  0  0  0  0  0  0  0  0
   38.7277   27.6287   52.0303 H   0  0  0  0  0  0  0  0  0  0  0  0
   40.5695   31.3250   52.2463 H   0  0  0  0  0  0  0  0  0  0  0  0
  1  2  1  0
  2  3  2  0
  3  4  1  0
  4  5  1  0
  5  1  2  0
  1  6  1  0
  2  7  1  0
  3  8  1  0
  5  9  1  0
M  END

>  <ID>
Pocket2Mol_1_num_sample_50

>  <docking_score>
-3.611

$$$$
Pocket2Mol_20_num_sample_50
     RDKit          3D

 10  9  0  0  0  0  0  0  0  0999 V2000
   39.5600   28.5810   51.2880 C   0  0  0  0  0  0  0  0  0  0  0  0
   40.0740   29.9080   51.1570 C   0  0  0  0  0  0  0  0  0  0  0  0
   40.5200   30.4000   50.0990 C   0  0  0  0  0  0  0  0  0  0  0  0
   39.9440   30.6200   52.3240 O   0  0  0  0  0  0  0  0  0  0  0  0
   39.4625   28.3292   52.3543 H   0  0  0  0  0  0  0  0  0  0  0  0
   38.5734   28.5206   50.8052 H   0  0  0  0  0  0  0  0  0  0  0  0
   40.2485   27.8718   50.8052 H   0  0  0  0  0  0  0  0  0  0  0  0
   41.2409   31.1952   50.3398 H   0  0  0  0  0  0  0  0  0  0  0  0
   41.0214   29.6158   49.5128 H   0  0  0  0  0  0  0  0  0  0  0  0
   39.6905   30.8222   49.5128 H   0  0  0  0  0  0  0  0  0  0  0  0
  1  2  1  0
  2  3  1  0
  2  4  2  0
  1  5  1  0
  1  6  1  0
  1  7  1  0
  3  8  1  0
  3  9  1  0
  3 10  1  0
M  END

>  <ID>
Pocket2Mol_20_num_sample_50

>  <docking_score>
-3.201

$$$$
Pocket2Mol_21_num_sample_50
     RDKit          3D

 14 14  0  0  0  0  0  0  0  0999 V2000
   39.6550   28.2380   50.7500 C   0  0  0  0  0  0  0  0  0  0  0  0
   38.8620   27.5370   51.7090 C   0  0  0  0  0  0  0  0  0  0  0  0
   37.7570   28.1400   52.0730 O   0  0  0  0  0  0  0  0  0  0  0  0
   37.4860   27.8130   53.4470 C   0  0  0  0  0  0  0  0  0  0  0  0
   38.7140   27.1570   53.8350 C   0  0  0  0  0  0  0  0  0  0  0  0
   39.4410   27.3260   52.7020 O   0  0  0  0  0  0  0  0  0  0  0  0
   40.3803   28.8792   51.2723 H   0  0  0  0  0  0  0  0  0  0  0  0
   40.1926   27.5144   50.1195 H   0  0  0  0  0  0  0  0  0  0  0  0
   39.0029   28.8603   50.1195 H   0  0  0  0  0  0  0  0  0  0  0  0
   38.6138   26.6148   51.1632 H   0  0  0  0  0  0  0  0  0  0  0  0
   37.3065   28.7171   54.0473 H   0  0  0  0  0  0  0  0  0  0  0  0
   36.5846   27.1995   53.5925 H   0  0  0  0  0  0  0  0  0  0  0  0
   39.1843   27.6495   54.6988 H   0  0  0  0  0  0  0  0  0  0  0  0
   38.5982   26.1122   54.1590 H   0  0  0  0  0  0  0  0  0  0  0  0
  1  2  1  0
  2  3  1  0
  3  4  1  0
  4  5  1  0
  5  6  1  0
  6  2  1  0
  1  7  1  0
  1  8  1  0
  1  9  1  0
  2 10  1  0
  4 11  1  0
  4 12  1  0
  5 13  1  0
  5 14  1  0
M  END

>  <ID>
Pocket2Mol_21_num_sample_50

>  <docking_score>
-3.87

$$$$
Pocket2Mol_22_num_sample_50
     RDKit          3D

 11 11  0  0  0  0  0  0  0  0999 V2000
   39.6170   30.4510   53.5710 C   0  0  0  0  0  0  0  0  0  0  0  0
   39.1740   29.3510   52.6560 C   0  0  0  0  0  0  0  0  0  0  0  0
   39.8510   29.1510   51.4730 C   0  0  0  0  0  0  0  0  0  0  0  0
   39.4230   28.2190   50.8010 C   0  0  0  0  0  0  0  0  0  0  0  0
   38.4530   27.4930   51.4280 N   0  0  0  0  0  0  0  0  0  0  0  0
   38.2090   28.2250   52.8950 S   0  0  0  0  0  0  0  0  0  0  0  0
   39.4888   30.1326   54.6161 H   0  0  0  0  0  0  0  0  0  0  0  0
   40.6769   30.6786   53.3845 H   0  0  0  0  0  0  0  0  0  0  0  0
   39.0107   31.3496   53.3845 H   0  0  0  0  0  0  0  0  0  0  0  0
   40.7017   29.7734   51.1586 H   0  0  0  0  0  0  0  0  0  0  0  0
   39.7867   27.9900   49.7885 H   0  0  0  0  0  0  0  0  0  0  0  0
  1  2  1  0
  2  3  2  0
  3  4  1  0
  4  5  2  0
  5  6  1  0
  6  2  1  0
  1  7  1  0
  1  8  1  0
  1  9  1  0
  3 10  1  0
  4 11  1  0
M  END

>  <ID>
Pocket2Mol_22_num_sample_50

>  <docking_score>
-4.094

$$$$
Pocket2Mol_23_num_sample_50
     RDKit          3D

 16 15  0  0  0  0  0  0  0  0999 V2000
   37.2570   28.2900   53.3870 C   0  0  0  0  0  0  0  0  0  0  0  0
   37.6360   28.0250   52.1090 O   0  0  0  0  0  0  0  0  0  0  0  0
   38.9110   27.5140   51.9450 C   0  0  0  0  0  0  0  0  0  0  0  0
   39.4370   28.2460   50.7140 C   0  0  0  0  0  0  0  0  0  0  0  0
   40.1690   29.2950   51.1180 O   0  0  0  0  0  0  0  0  0  0  0  0
   40.4380   30.3000   50.4560 C   0  0  0  0  0  0  0  0  0  0  0  0
   37.9540   27.8027   54.0847 H   0  0  0  0  0  0  0  0  0  0  0  0
   37.2698   29.3770   53.5553 H   0  0  0  0  0  0  0  0  0  0  0  0
   36.2405   27.9048   53.5553 H   0  0  0  0  0  0  0  0  0  0  0  0
   39.5355   27.7272   52.8251 H   0  0  0  0  0  0  0  0  0  0  0  0
   38.9207   26.4203   51.8278 H   0  0  0  0  0  0  0  0  0  0  0  0
   40.0627   27.5655   50.1179 H   0  0  0  0  0  0  0  0  0  0  0  0
   38.5957   28.5918   50.0954 H   0  0  0  0  0  0  0  0  0  0  0  0
   40.6619   31.1366   51.1341 H   0  0  0  0  0  0  0  0  0  0  0  0
   41.3136   30.0977   49.8217 H   0  0  0  0  0  0  0  0  0  0  0  0
   39.5784   30.5621   49.8217 H   0  0  0  0  0  0  0  0  0  0  0  0
  1  2  1  0
  2  3  1  0
  3  4  1  0
  4  5  1  0
  5  6  1  0
  1  7  1  0
  1  8  1  0
  1  9  1  0
  3 10  1  0
  3 11  1  0
  4 12  1  0
  4 13  1  0
  6 14  1  0
  6 15  1  0
  6 16  1  0
M  END

>  <ID>
Pocket2Mol_23_num_sample_50

>  <docking_score>
-3.336

$$$$
Pocket2Mol_24_num_sample_50
     RDKit          3D

 15 15  0  0  0  0  0  0  0  0999 V2000
   38.9750   28.5890   53.4480 C   0  0  0  0  0  0  0  0  0  0  0  0
   39.2570   29.1050   52.2880 N   0  0  0  0  0  0  0  0  0  0  0  0
   39.3260   28.4800   51.0610 C   0  0  0  0  0  0  0  0  0  0  0  0
   40.0940   29.1510   50.2170 C   0  0  0  0  0  0  0  0  0  0  0  0
   40.4740   30.3650   50.7240 C   0  0  0  0  0  0  0  0  0  0  0  0
   39.9530   30.5180   52.1160 C   0  0  0  0  0  0  0  0  0  0  0  0
   39.3391   29.2552   54.2440 H   0  0  0  0  0  0  0  0  0  0  0  0
   37.8856   28.4684   53.5406 H   0  0  0  0  0  0  0  0  0  0  0  0
   39.4618   27.6069   53.5406 H   0  0  0  0  0  0  0  0  0  0  0  0
   39.7414   27.4705   51.1970 H   0  0  0  0  0  0  0  0  0  0  0  0
   38.3107   28.4324   50.6404 H   0  0  0  0  0  0  0  0  0  0  0  0
   40.3916   28.7777   49.2260 H   0  0  0  0  0  0  0  0  0  0  0  0
   41.0730   31.1151   50.1869 H   0  0  0  0  0  0  0  0  0  0  0  0
   40.7639   30.6679   52.8440 H   0  0  0  0  0  0  0  0  0  0  0  0
   39.2983   31.3867   52.2793 H   0  0  0  0  0  0  0  0  0  0  0  0
  1  2  1  0
  2  3  1  0
  3  4  1  0
  4  5  2  0
  5  6  1  0
  6  2  1  0
  1  7  1  0
  1  8  1  0
  1  9  1  0
  3 10  1  0
  3 11  1  0
  4 12  1  0
  5 13  1  0
  6 14  1  0
  6 15  1  0
M  END

>  <ID>
Pocket2Mol_24_num_sample_50

>  <docking_score>
-3.986

$$$$
Pocket2Mol_25_num_sample_50
     RDKit          3D

 15 15  0  0  0  0  0  0  0  0999 V2000
   39.4590   30.6250   54.0600 C   0  0  0  0  0  0  0  0  0  0  0  0
   39.6310   29.9830   52.6840 C   0  0  0  0  0  0  0  0  0  0  0  0
   39.1570   28.6290   52.6110 C   0  0  0  0  0  0  0  0  0  0  0  0
   39.1180   28.0640   51.3910 C   0  0  0  0  0  0  0  0  0  0  0  0
   39.7800   28.6200   50.3410 C   0  0  0  0  0  0  0  0  0  0  0  0
   40.3010   30.0010   50.6140 C   0  0  0  0  0  0  0  0  0  0  0  0
   40.1620   30.5980   51.7040 C   0  0  0  0  0  0  0  0  0  0  0  0
   39.6594   29.8770   54.8412 H   0  0  0  0  0  0  0  0  0  0  0  0
   40.1644   31.4625   54.1646 H   0  0  0  0  0  0  0  0  0  0  0  0
   38.4293   30.9976   54.1646 H   0  0  0  0  0  0  0  0  0  0  0  0
   38.8409   28.0801   53.5103 H   0  0  0  0  0  0  0  0  0  0  0  0
   38.5424   27.1388   51.2403 H   0  0  0  0  0  0  0  0  0  0  0  0
   39.9208   28.1046   49.3794 H   0  0  0  0  0  0  0  0  0  0  0  0
   40.8378   30.5195   49.8060 H   0  0  0  0  0  0  0  0  0  0  0  0
   40.4942   31.6408   51.8145 H   0  0  0  0  0  0  0  0  0  0  0  0
  1  2  1  0
  2  3  2  0
  3  4  1  0
  4  5  2  0
  5  6  1  0
  6  7  2  0
  7  2  1  0
  1  8  1  0
  1  9  1  0
  1 10  1  0
  3 11  1  0
  4 12  1  0
  5 13  1  0
  6 14  1  0
  7 15  1  0
M  END

>  <ID>
Pocket2Mol_25_num_sample_50

>  <docking_score>
-5.662

$$$$
Pocket2Mol_26_num_sample_50
     RDKit          3D

 13 13  0  0  0  0  0  0  0  0999 V2000
   37.6780   27.7720   52.2320 O   0  0  0  0  0  0  0  0  0  0  0  0
   38.7270   28.5100   51.8610 C   0  0  0  0  0  0  0  0  0  0  0  0
   39.4500   28.0620   50.6920 C   0  0  0  0  0  0  0  0  0  0  0  0
   39.9850   29.3020   50.0150 O   0  0  0  0  0  0  0  0  0  0  0  0
   40.6940   30.2160   50.9310 C   0  0  0  0  0  0  0  0  0  0  0  0
   39.8540   30.5470   52.1750 C   0  0  0  0  0  0  0  0  0  0  0  0
   39.2910   29.2980   52.6370 O   0  0  0  0  0  0  0  0  0  0  0  0
   40.2796   27.4031   50.9880 H   0  0  0  0  0  0  0  0  0  0  0  0
   38.7968   27.4909   50.0158 H   0  0  0  0  0  0  0  0  0  0  0  0
   41.6325   29.7403   51.2520 H   0  0  0  0  0  0  0  0  0  0  0  0
   40.8891   31.1548   50.3920 H   0  0  0  0  0  0  0  0  0  0  0  0
   40.4902   30.9886   52.9562 H   0  0  0  0  0  0  0  0  0  0  0  0
   39.0640   31.2750   51.9383 H   0  0  0  0  0  0  0  0  0  0  0  0
  1  2  2  0
  2  3  1  0
  3  4  1  0
  4  5  1  0
  5  6  1  0
  6  7  1  0
  7  2  1  0
  3  8  1  0
  3  9  1  0
  5 10  1  0
  5 11  1  0
  6 12  1  0
  6 13  1  0
M  END

>  <ID>
Pocket2Mol_26_num_sample_50

>  <docking_score>
-4.163

$$$$
Pocket2Mol_27_num_sample_50
     RDKit          3D

 13 13  0  0  0  0  0  0  0  0999 V2000
   38.6790   27.0850   50.6900 O   0  0  0  0  0  0  0  0  0  0  0  0
   39.1480   28.3650   51.3890 C   0  0  0  0  0  0  0  0  0  0  0  0
   39.7890   29.3780   50.8680 C   0  0  0  0  0  0  0  0  0  0  0  0
   40.1250   30.3660   51.5110 C   0  0  0  0  0  0  0  0  0  0  0  0
   39.7990   30.5150   52.8460 C   0  0  0  0  0  0  0  0  0  0  0  0
   39.0090   29.3070   53.3600 C   0  0  0  0  0  0  0  0  0  0  0  0
   38.7170   28.3810   52.6730 C   0  0  0  0  0  0  0  0  0  0  0  0
   39.0540   26.8360   49.8100 H   0  0  0  0  0  0  0  0  0  0  0  0
   40.0398   29.3420   49.7976 H   0  0  0  0  0  0  0  0  0  0  0  0
   40.7029   31.1572   51.0110 H   0  0  0  0  0  0  0  0  0  0  0  0
   40.0711   31.3868   53.4591 H   0  0  0  0  0  0  0  0  0  0  0  0
   38.6970   29.2956   54.4148 H   0  0  0  0  0  0  0  0  0  0  0  0
   38.1098   27.5551   53.0719 H   0  0  0  0  0  0  0  0  0  0  0  0
  1  2  1  0
  2  3  2  0
  3  4  1  0
  4  5  2  0
  5  6  1  0
  6  7  2  0
  7  2  1  0
  1  8  1  0
  3  9  1  0
  4 10  1  0
  5 11  1  0
  6 12  1  0
  7 13  1  0
M  END

>  <ID>
Pocket2Mol_27_num_sample_50

>  <docking_score>
-5.135

$$$$
Pocket2Mol_28_num_sample_50
     RDKit          3D

 14 14  0  0  0  0  0  0  0  0999 V2000
   38.1270   27.5430   52.7020 N   0  0  0  0  0  0  0  0  0  0  0  0
   39.0560   28.4170   51.9350 C   0  0  0  0  0  0  0  0  0  0  0  0
   39.4480   28.2570   50.6810 C   0  0  0  0  0  0  0  0  0  0  0  0
   40.0210   29.1290   50.1970 C   0  0  0  0  0  0  0  0  0  0  0  0
   40.5230   30.2410   50.7040 C   0  0  0  0  0  0  0  0  0  0  0  0
   40.0970   30.5210   52.0010 C   0  0  0  0  0  0  0  0  0  0  0  0
   39.3280   29.6140   52.6570 C   0  0  0  0  0  0  0  0  0  0  0  0
   38.3360   27.3050   53.6820 H   0  0  0  0  0  0  0  0  0  0  0  0
   37.2760   27.1760   52.2530 H   0  0  0  0  0  0  0  0  0  0  0  0
   39.2353   27.3312   50.1263 H   0  0  0  0  0  0  0  0  0  0  0  0
   40.1801   29.0166   49.1144 H   0  0  0  0  0  0  0  0  0  0  0  0
   41.2174   30.8899   50.1501 H   0  0  0  0  0  0  0  0  0  0  0  0
   40.3804   31.4658   52.4878 H   0  0  0  0  0  0  0  0  0  0  0  0
   38.9432   29.7911   53.6722 H   0  0  0  0  0  0  0  0  0  0  0  0
  1  2  1  0
  2  3  2  0
  3  4  1  0
  4  5  2  0
  5  6  1  0
  6  7  2  0
  7  2  1  0
  1  8  1  0
  1  9  1  0
  3 10  1  0
  4 11  1  0
  5 12  1  0
  6 13  1  0
  7 14  1  0
M  END

>  <ID>
Pocket2Mol_28_num_sample_50

>  <docking_score>
-5.288

$$$$
Pocket2Mol_29_num_sample_50
     RDKit          3D

 17 17  0  0  0  0  0  0  0  0999 V2000
   37.8480   27.8360   51.9590 O   0  0  0  0  0  0  0  0  0  0  0  0
   38.9890   28.5390   51.8390 C   0  0  0  0  0  0  0  0  0  0  0  0
   39.4500   29.3860   52.6350 C   0  0  0  0  0  0  0  0  0  0  0  0
   39.8320   30.4850   52.0490 C   0  0  0  0  0  0  0  0  0  0  0  0
   40.7910   30.2540   50.9430 C   0  0  0  0  0  0  0  0  0  0  0  0
   40.0520   29.5390   50.0310 C   0  0  0  0  0  0  0  0  0  0  0  0
   39.6430   28.2850   50.6770 C   0  0  0  0  0  0  0  0  0  0  0  0
   38.6713   29.6345   53.3711 H   0  0  0  0  0  0  0  0  0  0  0  0
   40.3381   28.9414   53.1080 H   0  0  0  0  0  0  0  0  0  0  0  0
   38.9441   30.9910   51.6419 H   0  0  0  0  0  0  0  0  0  0  0  0
   40.3460   31.0969   52.8049 H   0  0  0  0  0  0  0  0  0  0  0  0
   41.1339   31.2065   50.5128 H   0  0  0  0  0  0  0  0  0  0  0  0
   41.7030   29.7300   51.2651 H   0  0  0  0  0  0  0  0  0  0  0  0
   39.1633   30.1152   49.7339 H   0  0  0  0  0  0  0  0  0  0  0  0
   40.6462   29.3330   49.1285 H   0  0  0  0  0  0  0  0  0  0  0  0
   38.9763   27.7302   50.0004 H   0  0  0  0  0  0  0  0  0  0  0  0
   40.5412   27.6896   50.8976 H   0  0  0  0  0  0  0  0  0  0  0  0
  1  2  2  0
  2  3  1  0
  3  4  1  0
  4  5  1  0
  5  6  1  0
  6  7  1  0
  7  2  1  0
  3  8  1  0
  3  9  1  0
  4 10  1  0
  4 11  1  0
  5 12  1  0
  5 13  1  0
  6 14  1  0
  6 15  1  0
  7 16  1  0
  7 17  1  0
M  END

>  <ID>
Pocket2Mol_29_num_sample_50

>  <docking_score>
-5.614

$$$$
Pocket2Mol_2_num_sample_50
     RDKit          3D

  9  9  0  0  0  0  0  0  0  0999 V2000
   40.4130   30.4970   50.7480 C   0  0  0  0  0  0  0  0  0  0  0  0
   39.9370   30.3360   51.9940 C   0  0  0  0  0  0  0  0  0  0  0  0
   39.4110   28.7430   52.1000 C   0  0  0  0  0  0  0  0  0  0  0  0
   39.4950   28.3060   50.7490 C   0  0  0  0  0  0  0  0  0  0  0  0
   40.2010   29.3490   49.9550 C   0  0  0  0  0  0  0  0  0  0  0  0
   39.8990   31.0964   52.7879 H   0  0  0  0  0  0  0  0  0  0  0  0
   39.0849   28.1815   52.9879 H   0  0  0  0  0  0  0  0  0  0  0  0
   39.1036   27.3559   50.3563 H   0  0  0  0  0  0  0  0  0  0  0  0
   40.5115   29.2408   48.9053 H   0  0  0  0  0  0  0  0  0  0  0  0
  1  2  2  0
  2  3  1  0
  3  4  2  0
  4  5  1  0
  5  1  2  0
  2  6  1  0
  3  7  1  0
  4  8  1  0
  5  9  1  0
M  END

>  <ID>
Pocket2Mol_2_num_sample_50

>  <docking_score>
-4.251

$$$$
Pocket2Mol_30_num_sample_50
     RDKit          3D

 15 15  0  0  0  0  0  0  0  0999 V2000
   38.6150   27.2320   50.6490 O   0  0  0  0  0  0  0  0  0  0  0  0
   39.3610   27.4390   51.7680 C   0  0  0  0  0  0  0  0  0  0  0  0
   38.5860   28.5320   52.4830 C   0  0  0  0  0  0  0  0  0  0  0  0
   39.0160   28.7520   53.6420 O   0  0  0  0  0  0  0  0  0  0  0  0
   38.2460   28.2670   54.5850 C   0  0  0  0  0  0  0  0  0  0  0  0
   37.3830   27.4940   53.8300 C   0  0  0  0  0  0  0  0  0  0  0  0
   37.0820   28.1620   52.6040 O   0  0  0  0  0  0  0  0  0  0  0  0
   37.9460   27.9550   50.5590 H   0  0  0  0  0  0  0  0  0  0  0  0
   39.4195   26.5274   52.3809 H   0  0  0  0  0  0  0  0  0  0  0  0
   40.4054   27.7103   51.5545 H   0  0  0  0  0  0  0  0  0  0  0  0
   38.7192   29.4360   51.8706 H   0  0  0  0  0  0  0  0  0  0  0  0
   38.8159   27.6577   55.3019 H   0  0  0  0  0  0  0  0  0  0  0  0
   37.7542   29.0255   55.2118 H   0  0  0  0  0  0  0  0  0  0  0  0
   37.8565   26.5255   53.6115 H   0  0  0  0  0  0  0  0  0  0  0  0
   36.4523   27.3327   54.3937 H   0  0  0  0  0  0  0  0  0  0  0  0
  1  2  1  0
  2  3  1  0
  3  4  1  0
  4  5  1  0
  5  6  1  0
  6  7  1  0
  7  3  1  0
  1  8  1  0
  2  9  1  0
  2 10  1  0
  3 11  1  0
  5 12  1  0
  5 13  1  0
  6 14  1  0
  6 15  1  0
M  END

>  <ID>
Pocket2Mol_30_num_sample_50

>  <docking_score>
-3.89

$$$$
Pocket2Mol_31_num_sample_50
     RDKit          3D

 10  9  0  0  0  0  0  0  0  0999 V2000
   37.2360   34.9380   48.0000 O   0  0  0  0  0  0  0  0  0  0  0  0
   38.4100   34.6520   48.0680 C   0  0  0  0  0  0  0  0  0  0  0  0
   39.2000   35.5930   47.3770 C   0  0  0  0  0  0  0  0  0  0  0  0
   38.7670   35.8970   46.2880 O   0  0  0  0  0  0  0  0  0  0  0  0
   37.0970   35.5990   47.2760 H   0  0  0  0  0  0  0  0  0  0  0  0
   38.7150   34.6330   49.1247 H   0  0  0  0  0  0  0  0  0  0  0  0
   38.5574   33.6644   47.6066 H   0  0  0  0  0  0  0  0  0  0  0  0
   39.2663   36.5045   47.9892 H   0  0  0  0  0  0  0  0  0  0  0  0
   40.1798   35.1222   47.2088 H   0  0  0  0  0  0  0  0  0  0  0  0
   38.1820   36.6910   46.3750 H   0  0  0  0  0  0  0  0  0  0  0  0
  1  2  1  0
  2  3  1  0
  3  4  1  0
  1  5  1  0
  2  6  1  0
  2  7  1  0
  3  8  1  0
  3  9  1  0
  4 10  1  0
M  END

>  <ID>
Pocket2Mol_31_num_sample_50

>  <docking_score>
-3.467

$$$$
Pocket2Mol_32_num_sample_50
     RDKit          3D

 12 12  0  0  0  0  0  0  0  0999 V2000
   41.1110   30.6190   49.8080 F   0  0  0  0  0  0  0  0  0  0  0  0
   40.3120   29.9010   50.7780 C   0  0  0  0  0  0  0  0  0  0  0  0
   39.7830   28.6710   50.6300 C   0  0  0  0  0  0  0  0  0  0  0  0
   39.2150   27.9990   51.3720 C   0  0  0  0  0  0  0  0  0  0  0  0
   38.9840   28.4950   52.5770 C   0  0  0  0  0  0  0  0  0  0  0  0
   39.3890   29.8370   52.9400 C   0  0  0  0  0  0  0  0  0  0  0  0
   40.0800   30.5130   52.0110 C   0  0  0  0  0  0  0  0  0  0  0  0
   39.9167   28.2343   49.6293 H   0  0  0  0  0  0  0  0  0  0  0  0
   38.8792   26.9896   51.0921 H   0  0  0  0  0  0  0  0  0  0  0  0
   38.4704   27.8709   53.3231 H   0  0  0  0  0  0  0  0  0  0  0  0
   39.1445   30.2753   53.9188 H   0  0  0  0  0  0  0  0  0  0  0  0
   40.4555   31.5265   52.2157 H   0  0  0  0  0  0  0  0  0  0  0  0
  1  2  1  0
  2  3  2  0
  3  4  1  0
  4  5  2  0
  5  6  1  0
  6  7  2  0
  7  2  1  0
  3  8  1  0
  4  9  1  0
  5 10  1  0
  6 11  1  0
  7 12  1  0
M  END

>  <ID>
Pocket2Mol_32_num_sample_50

>  <docking_score>
-5.441

$$$$
Pocket2Mol_33_num_sample_50
     RDKit          3D

 17 17  0  0  0  0  0  0  0  0999 V2000
   40.2680   30.3860   50.7910 C   0  0  0  0  0  0  0  0  0  0  0  0
   40.1690   29.1670   50.2220 C   0  0  0  0  0  0  0  0  0  0  0  0
   39.9150   28.2170   51.1610 O   0  0  0  0  0  0  0  0  0  0  0  0
   38.6780   28.2850   51.7760 C   0  0  0  0  0  0  0  0  0  0  0  0
   39.0120   28.6840   53.2120 C   0  0  0  0  0  0  0  0  0  0  0  0
   39.5520   29.9110   53.2020 O   0  0  0  0  0  0  0  0  0  0  0  0
   39.8890   30.4990   52.1140 C   0  0  0  0  0  0  0  0  0  0  0  0
   41.3201   30.6993   50.7206 H   0  0  0  0  0  0  0  0  0  0  0  0
   39.5551   31.0151   50.2378 H   0  0  0  0  0  0  0  0  0  0  0  0
   39.3500   29.1768   49.4877 H   0  0  0  0  0  0  0  0  0  0  0  0
   41.1224   28.9292   49.7276 H   0  0  0  0  0  0  0  0  0  0  0  0
   38.0418   29.0430   51.2957 H   0  0  0  0  0  0  0  0  0  0  0  0
   38.1176   27.3405   51.7143 H   0  0  0  0  0  0  0  0  0  0  0  0
   38.0941   28.6884   53.8181 H   0  0  0  0  0  0  0  0  0  0  0  0
   39.7227   27.9650   53.6454 H   0  0  0  0  0  0  0  0  0  0  0  0
   39.0136   31.1534   51.9901 H   0  0  0  0  0  0  0  0  0  0  0  0
   40.9451   30.4258   52.4128 H   0  0  0  0  0  0  0  0  0  0  0  0
  1  2  1  0
  2  3  1  0
  3  4  1  0
  4  5  1  0
  5  6  1  0
  6  7  1  0
  7  1  1  0
  1  8  1  0
  1  9  1  0
  2 10  1  0
  2 11  1  0
  4 12  1  0
  4 13  1  0
  5 14  1  0
  5 15  1  0
  7 16  1  0
  7 17  1  0
M  END

>  <ID>
Pocket2Mol_33_num_sample_50

>  <docking_score>
-4.112

$$$$
Pocket2Mol_34_num_sample_50
     RDKit          3D

 19 19  0  0  0  0  0  0  0  0999 V2000
   38.6790   27.1380   51.0220 O   0  0  0  0  0  0  0  0  0  0  0  0
   39.2060   28.1660   51.1780 C   0  0  0  0  0  0  0  0  0  0  0  0
   39.9200   28.8320   50.2110 C   0  0  0  0  0  0  0  0  0  0  0  0
   40.0880   30.2600   50.5170 C   0  0  0  0  0  0  0  0  0  0  0  0
   40.3610   30.4510   51.7780 C   0  0  0  0  0  0  0  0  0  0  0  0
   39.3790   29.8540   52.6200 C   0  0  0  0  0  0  0  0  0  0  0  0
   39.2660   28.5990   52.3920 C   0  0  0  0  0  0  0  0  0  0  0  0
   39.2760   26.5350   50.5110 H   0  0  0  0  0  0  0  0  0  0  0  0
   38.4496   28.5751   50.4921 H   0  0  0  0  0  0  0  0  0  0  0  0
   40.9148   28.3702   50.1264 H   0  0  0  0  0  0  0  0  0  0  0  0
   39.3570   28.7565   49.2690 H   0  0  0  0  0  0  0  0  0  0  0  0
   40.9119   30.6612   49.9084 H   0  0  0  0  0  0  0  0  0  0  0  0
   39.1436   30.7750   50.2871 H   0  0  0  0  0  0  0  0  0  0  0  0
   41.3422   30.0074   52.0027 H   0  0  0  0  0  0  0  0  0  0  0  0
   40.3684   31.5341   51.9698 H   0  0  0  0  0  0  0  0  0  0  0  0
   39.6710   30.0017   53.6702 H   0  0  0  0  0  0  0  0  0  0  0  0
   38.4099   30.3313   52.4124 H   0  0  0  0  0  0  0  0  0  0  0  0
   40.1341   28.1119   52.8601 H   0  0  0  0  0  0  0  0  0  0  0  0
   38.2716   28.3576   52.7956 H   0  0  0  0  0  0  0  0  0  0  0  0
  1  2  1  0
  2  3  1  0
  3  4  1  0
  4  5  1  0
  5  6  1  0
  6  7  1  0
  7  2  1  0
  1  8  1  0
  2  9  1  0
  3 10  1  0
  3 11  1  0
  4 12  1  0
  4 13  1  0
  5 14  1  0
  5 15  1  0
  6 16  1  0
  6 17  1  0
  7 18  1  0
  7 19  1  0
M  END

>  <ID>
Pocket2Mol_34_num_sample_50

>  <docking_score>
-5.282

$$$$
Pocket2Mol_35_num_sample_50
     RDKit          3D

 11 11  0  0  0  0  0  0  0  0999 V2000
   37.8590   27.6110   51.8910 O   0  0  0  0  0  0  0  0  0  0  0  0
   38.9300   28.4060   51.8590 C   0  0  0  0  0  0  0  0  0  0  0  0
   39.6450   28.4370   50.5940 C   0  0  0  0  0  0  0  0  0  0  0  0
   40.1600   29.5160   50.2790 C   0  0  0  0  0  0  0  0  0  0  0  0
   40.2580   30.4800   51.1550 C   0  0  0  0  0  0  0  0  0  0  0  0
   39.8070   30.4810   52.5260 C   0  0  0  0  0  0  0  0  0  0  0  0
   39.1980   29.1950   52.7800 O   0  0  0  0  0  0  0  0  0  0  0  0
   39.7238   27.5479   49.9511 H   0  0  0  0  0  0  0  0  0  0  0  0
   40.5373   29.6648   49.2565 H   0  0  0  0  0  0  0  0  0  0  0  0
   40.7432   31.4032   50.8053 H   0  0  0  0  0  0  0  0  0  0  0  0
   39.9080   31.3076   53.2447 H   0  0  0  0  0  0  0  0  0  0  0  0
  1  2  2  0
  2  3  1  0
  3  4  2  0
  4  5  1  0
  5  6  2  0
  6  7  1  0
  7  2  1  0
  3  8  1  0
  4  9  1  0
  5 10  1  0
  6 11  1  0
M  END

>  <ID>
Pocket2Mol_35_num_sample_50

>  <docking_score>
-5.254

$$$$
Pocket2Mol_36_num_sample_50
     RDKit          3D

 17 17  0  0  0  0  0  0  0  0999 V2000
   38.1370   27.5370   52.1300 O   0  0  0  0  0  0  0  0  0  0  0  0
   39.0610   28.3720   51.5980 C   0  0  0  0  0  0  0  0  0  0  0  0
   39.3640   29.3850   52.4200 C   0  0  0  0  0  0  0  0  0  0  0  0
   40.0460   30.5760   51.9500 C   0  0  0  0  0  0  0  0  0  0  0  0
   40.5350   30.2170   50.7940 C   0  0  0  0  0  0  0  0  0  0  0  0
   39.8350   29.0960   50.2690 C   0  0  0  0  0  0  0  0  0  0  0  0
   39.6610   27.9720   50.8710 C   0  0  0  0  0  0  0  0  0  0  0  0
   37.6680   27.7860   52.9650 H   0  0  0  0  0  0  0  0  0  0  0  0
   39.0877   29.3118   53.4822 H   0  0  0  0  0  0  0  0  0  0  0  0
   39.3407   31.4122   51.8349 H   0  0  0  0  0  0  0  0  0  0  0  0
   40.8190   30.9283   52.6489 H   0  0  0  0  0  0  0  0  0  0  0  0
   40.4472   31.0576   50.0899 H   0  0  0  0  0  0  0  0  0  0  0  0
   41.5899   29.9375   50.9320 H   0  0  0  0  0  0  0  0  0  0  0  0
   38.8232   29.4647   50.0446 H   0  0  0  0  0  0  0  0  0  0  0  0
   40.5360   28.7845   49.4806 H   0  0  0  0  0  0  0  0  0  0  0  0
   39.1481   27.2230   50.2499 H   0  0  0  0  0  0  0  0  0  0  0  0
   40.5509   27.4062   51.1839 H   0  0  0  0  0  0  0  0  0  0  0  0
  1  2  1  0
  2  3  2  0
  3  4  1  0
  4  5  1  0
  5  6  1  0
  6  7  1  0
  7  2  1  0
  1  8  1  0
  3  9  1  0
  4 10  1  0
  4 11  1  0
  5 12  1  0
  5 13  1  0
  6 14  1  0
  6 15  1  0
  7 16  1  0
  7 17  1  0
M  END

>  <ID>
Pocket2Mol_36_num_sample_50

>  <docking_score>
-5.471

$$$$
Pocket2Mol_37_num_sample_50
     RDKit          3D

 15 15  0  0  0  0  0  0  0  0999 V2000
   39.0490   27.8680   51.1030 C   0  0  0  0  0  0  0  0  0  0  0  0
   38.3930   28.1990   52.3470 C   0  0  0  0  0  0  0  0  0  0  0  0
   39.1530   28.6080   53.3220 O   0  0  0  0  0  0  0  0  0  0  0  0
   39.3530   30.1380   53.2660 C   0  0  0  0  0  0  0  0  0  0  0  0
   40.1740   30.7410   52.0760 O   0  0  0  0  0  0  0  0  0  0  0  0
   40.0370   29.9500   50.8530 C   0  0  0  0  0  0  0  0  0  0  0  0
   40.1820   28.7540   51.1310 O   0  0  0  0  0  0  0  0  0  0  0  0
   39.3636   26.8141   51.0827 H   0  0  0  0  0  0  0  0  0  0  0  0
   38.4107   27.9845   50.2148 H   0  0  0  0  0  0  0  0  0  0  0  0
   37.6641   28.9956   52.1369 H   0  0  0  0  0  0  0  0  0  0  0  0
   37.9550   27.2541   52.7011 H   0  0  0  0  0  0  0  0  0  0  0  0
   38.3531   30.5954   53.2354 H   0  0  0  0  0  0  0  0  0  0  0  0
   39.9614   30.3629   54.1544 H   0  0  0  0  0  0  0  0  0  0  0  0
   39.0386   30.1099   50.4198 H   0  0  0  0  0  0  0  0  0  0  0  0
   40.7998   30.2579   50.1227 H   0  0  0  0  0  0  0  0  0  0  0  0
  1  2  1  0
  2  3  1  0
  3  4  1  0
  4  5  1  0
  5  6  1  0
  6  7  1  0
  7  1  1  0
  1  8  1  0
  1  9  1  0
  2 10  1  0
  2 11  1  0
  4 12  1  0
  4 13  1  0
  6 14  1  0
  6 15  1  0
M  END

>  <ID>
Pocket2Mol_37_num_sample_50

>  <docking_score>
-3.821

$$$$
Pocket2Mol_38_num_sample_50
     RDKit          3D

 12 12  0  0  0  0  0  0  0  0999 V2000
   40.3300   30.3130   50.2410 C   0  0  0  0  0  0  0  0  0  0  0  0
   39.7730   29.7060   51.4920 C   0  0  0  0  0  0  0  0  0  0  0  0
   39.7940   30.4380   52.6580 C   0  0  0  0  0  0  0  0  0  0  0  0
   39.3030   29.8610   53.6220 C   0  0  0  0  0  0  0  0  0  0  0  0
   38.7170   28.6690   53.3070 N   0  0  0  0  0  0  0  0  0  0  0  0
   38.8120   28.3830   51.8370 C   0  0  0  0  0  0  0  0  0  0  0  0
   38.5100   27.6120   51.1030 O   0  0  0  0  0  0  0  0  0  0  0  0
   41.0520   31.0998   50.5052 H   0  0  0  0  0  0  0  0  0  0  0  0
   40.8353   29.5353   49.6496 H   0  0  0  0  0  0  0  0  0  0  0  0
   39.5118   30.7497   49.6496 H   0  0  0  0  0  0  0  0  0  0  0  0
   40.2148   31.4525   52.7193 H   0  0  0  0  0  0  0  0  0  0  0  0
   39.3320   30.2657   54.6444 H   0  0  0  0  0  0  0  0  0  0  0  0
  1  2  1  0
  2  3  2  0
  3  4  1  0
  4  5  2  0
  5  6  1  0
  6  7  2  0
  6  2  1  0
  1  8  1  0
  1  9  1  0
  1 10  1  0
  3 11  1  0
  4 12  1  0
M  END

>  <ID>
Pocket2Mol_38_num_sample_50

>  <docking_score>
-5.086

$$$$
Pocket2Mol_39_num_sample_50
     RDKit          3D

 15 15  0  0  0  0  0  0  0  0999 V2000
   38.0000   27.1380   53.8670 C   0  0  0  0  0  0  0  0  0  0  0  0
   38.7200   28.0170   52.8510 C   0  0  0  0  0  0  0  0  0  0  0  0
   38.9160   27.4580   51.6030 C   0  0  0  0  0  0  0  0  0  0  0  0
   39.4790   28.2420   50.7650 C   0  0  0  0  0  0  0  0  0  0  0  0
   39.9090   29.4130   51.2410 C   0  0  0  0  0  0  0  0  0  0  0  0
   40.6560   30.4500   50.3530 C   0  0  0  0  0  0  0  0  0  0  0  0
   39.1430   29.4180   53.0560 S   0  0  0  0  0  0  0  0  0  0  0  0
   38.2648   27.4613   54.8845 H   0  0  0  0  0  0  0  0  0  0  0  0
   36.9130   27.2283   53.7249 H   0  0  0  0  0  0  0  0  0  0  0  0
   38.3026   26.0900   53.7249 H   0  0  0  0  0  0  0  0  0  0  0  0
   38.6145   26.4301   51.3528 H   0  0  0  0  0  0  0  0  0  0  0  0
   39.6027   27.9664   49.7073 H   0  0  0  0  0  0  0  0  0  0  0  0
   41.1779   31.1745   50.9955 H   0  0  0  0  0  0  0  0  0  0  0  0
   41.3878   29.9293   49.7179 H   0  0  0  0  0  0  0  0  0  0  0  0
   39.9303   30.9792   49.7179 H   0  0  0  0  0  0  0  0  0  0  0  0
  1  2  1  0
  2  3  2  0
  3  4  1  0
  4  5  2  0
  5  6  1  0
  5  7  1  0
  7  2  1  0
  1  8  1  0
  1  9  1  0
  1 10  1  0
  3 11  1  0
  4 12  1  0
  6 13  1  0
  6 14  1  0
  6 15  1  0
M  END

>  <ID>
Pocket2Mol_39_num_sample_50

>  <docking_score>
-5.086

$$$$
Pocket2Mol_3_num_sample_50
     RDKit          3D

 13 13  0  0  0  0  0  0  0  0999 V2000
   40.2740   30.4590   50.1260 C   0  0  0  0  0  0  0  0  0  0  0  0
   39.9300   29.3260   49.8580 N   0  0  0  0  0  0  0  0  0  0  0  0
   39.4790   28.3800   50.7680 C   0  0  0  0  0  0  0  0  0  0  0  0
   39.5880   29.1870   51.8950 C   0  0  0  0  0  0  0  0  0  0  0  0
   40.1590   30.4320   51.5720 C   0  0  0  0  0  0  0  0  0  0  0  0
   40.5855   31.2767   49.4594 H   0  0  0  0  0  0  0  0  0  0  0  0
   39.9760   29.0420   48.8700 H   0  0  0  0  0  0  0  0  0  0  0  0
   38.4439   28.0636   50.5721 H   0  0  0  0  0  0  0  0  0  0  0  0
   40.0104   27.4171   50.7909 H   0  0  0  0  0  0  0  0  0  0  0  0
   38.5860   29.3501   52.3186 H   0  0  0  0  0  0  0  0  0  0  0  0
   40.2383   28.6826   52.6249 H   0  0  0  0  0  0  0  0  0  0  0  0
   39.5112   31.2506   51.9188 H   0  0  0  0  0  0  0  0  0  0  0  0
   41.1384   30.5624   52.0555 H   0  0  0  0  0  0  0  0  0  0  0  0
  1  2  2  0
  2  3  1  0
  3  4  1  0
  4  5  1  0
  5  1  1  0
  1  6  1  0
  2  7  1  0
  3  8  1  0
  3  9  1  0
  4 10  1  0
  4 11  1  0
  5 12  1  0
  5 13  1  0
M  CHG  1   2   1
M  END

>  <ID>
Pocket2Mol_3_num_sample_50

>  <docking_score>
-3.705

$$$$
Pocket2Mol_40_num_sample_50
     RDKit          3D

 10  9  0  0  0  0  0  0  0  0999 V2000
   39.0400   35.4680   46.5580 C   0  0  0  0  0  0  0  0  0  0  0  0
   37.9900   34.9700   47.4170 O   0  0  0  0  0  0  0  0  0  0  0  0
   38.2350   34.4760   48.5290 C   0  0  0  0  0  0  0  0  0  0  0  0
   38.4820   33.2740   48.7550 O   0  0  0  0  0  0  0  0  0  0  0  0
   37.6650   35.1660   49.7090 C   0  0  0  0  0  0  0  0  0  0  0  0
   36.5540   34.5880   50.1900 O   0  0  0  0  0  0  0  0  0  0  0  0
   37.9110   36.5350   49.8670 O   0  0  0  0  0  0  0  0  0  0  0  0
   39.8634   35.8585   47.1740 H   0  0  0  0  0  0  0  0  0  0  0  0
   39.4128   34.6508   45.9231 H   0  0  0  0  0  0  0  0  0  0  0  0
   38.6430   36.2738   45.9231 H   0  0  0  0  0  0  0  0  0  0  0  0
  1  2  1  0
  2  3  1  0
  3  4  2  0
  3  5  1  0
  5  6  2  0
  5  7  1  0
  1  8  1  0
  1  9  1  0
  1 10  1  0
M  CHG  1   7  -1
M  END

>  <ID>
Pocket2Mol_40_num_sample_50

>  <docking_score>
-4.086

$$$$
Pocket2Mol_41_num_sample_50
     RDKit          3D

 15 15  0  0  0  0  0  0  0  0999 V2000
   40.1820   30.4360   50.7450 C   0  0  0  0  0  0  0  0  0  0  0  0
   40.1610   29.2030   50.1990 C   0  0  0  0  0  0  0  0  0  0  0  0
   39.9530   28.2580   51.1530 O   0  0  0  0  0  0  0  0  0  0  0  0
   38.7060   28.2640   51.7530 C   0  0  0  0  0  0  0  0  0  0  0  0
   38.9980   28.7080   53.1840 C   0  0  0  0  0  0  0  0  0  0  0  0
   39.4650   29.9650   53.1570 O   0  0  0  0  0  0  0  0  0  0  0  0
   39.9240   30.5060   52.1870 C   0  0  0  0  0  0  0  0  0  0  0  0
   40.3809   31.3358   50.1444 H   0  0  0  0  0  0  0  0  0  0  0  0
   40.2941   28.9913   49.1278 H   0  0  0  0  0  0  0  0  0  0  0  0
   38.0322   28.9741   51.2513 H   0  0  0  0  0  0  0  0  0  0  0  0
   38.2030   27.2870   51.7030 H   0  0  0  0  0  0  0  0  0  0  0  0
   38.0740   28.6690   53.7796 H   0  0  0  0  0  0  0  0  0  0  0  0
   39.7446   28.0403   53.6388 H   0  0  0  0  0  0  0  0  0  0  0  0
   39.3599   31.4496   52.2233 H   0  0  0  0  0  0  0  0  0  0  0  0
   40.8924   30.0211   52.3797 H   0  0  0  0  0  0  0  0  0  0  0  0
  1  2  2  0
  2  3  1  0
  3  4  1  0
  4  5  1  0
  5  6  1  0
  6  7  1  0
  7  1  1  0
  1  8  1  0
  2  9  1  0
  4 10  1  0
  4 11  1  0
  5 12  1  0
  5 13  1  0
  7 14  1  0
  7 15  1  0
M  END

>  <ID>
Pocket2Mol_41_num_sample_50

>  <docking_score>
-4.131

$$$$
Pocket2Mol_42_num_sample_50
     RDKit          3D

 10  9  0  0  0  0  0  0  0  0999 V2000
   37.8560   34.2680   48.8920 C   0  0  0  0  0  0  0  0  0  0  0  0
   37.8900   34.9800   47.8450 O   0  0  0  0  0  0  0  0  0  0  0  0
   39.0100   35.3370   47.2840 C   0  0  0  0  0  0  0  0  0  0  0  0
   38.7470   36.0030   46.0690 O   0  0  0  0  0  0  0  0  0  0  0  0
   37.8870   34.9182   49.7787 H   0  0  0  0  0  0  0  0  0  0  0  0
   36.9286   33.6766   48.9033 H   0  0  0  0  0  0  0  0  0  0  0  0
   38.7228   33.5909   48.9033 H   0  0  0  0  0  0  0  0  0  0  0  0
   39.5572   36.0117   47.9588 H   0  0  0  0  0  0  0  0  0  0  0  0
   39.6159   34.4413   47.0824 H   0  0  0  0  0  0  0  0  0  0  0  0
   38.2260   35.4080   45.4720 H   0  0  0  0  0  0  0  0  0  0  0  0
  1  2  1  0
  2  3  1  0
  3  4  1  0
  1  5  1  0
  1  6  1  0
  1  7  1  0
  3  8  1  0
  3  9  1  0
  4 10  1  0
M  END

>  <ID>
Pocket2Mol_42_num_sample_50

>  <docking_score>
-3.349

$$$$
Pocket2Mol_43_num_sample_50
     RDKit          3D

 15 15  0  0  0  0  0  0  0  0999 V2000
   37.8110   27.5850   52.5610 O   0  0  0  0  0  0  0  0  0  0  0  0
   38.7260   28.4100   52.0500 C   0  0  0  0  0  0  0  0  0  0  0  0
   39.3050   28.0260   50.7810 C   0  0  0  0  0  0  0  0  0  0  0  0
   39.9420   29.2770   50.1340 C   0  0  0  0  0  0  0  0  0  0  0  0
   40.7370   30.2750   51.1270 C   0  0  0  0  0  0  0  0  0  0  0  0
   39.7090   30.5370   52.2210 C   0  0  0  0  0  0  0  0  0  0  0  0
   39.3290   29.2440   52.7440 O   0  0  0  0  0  0  0  0  0  0  0  0
   40.0761   27.2582   50.9421 H   0  0  0  0  0  0  0  0  0  0  0  0
   38.5271   27.6149   50.1208 H   0  0  0  0  0  0  0  0  0  0  0  0
   40.6517   28.9325   49.3674 H   0  0  0  0  0  0  0  0  0  0  0  0
   39.0985   29.8650   49.7432 H   0  0  0  0  0  0  0  0  0  0  0  0
   41.6387   29.7951   51.5351 H   0  0  0  0  0  0  0  0  0  0  0  0
   41.0968   31.1902   50.6341 H   0  0  0  0  0  0  0  0  0  0  0  0
   40.1502   31.1545   53.0173 H   0  0  0  0  0  0  0  0  0  0  0  0
   38.8369   31.0789   51.8264 H   0  0  0  0  0  0  0  0  0  0  0  0
  1  2  2  0
  2  3  1  0
  3  4  1  0
  4  5  1  0
  5  6  1  0
  6  7  1  0
  7  2  1  0
  3  8  1  0
  3  9  1  0
  4 10  1  0
  4 11  1  0
  5 12  1  0
  5 13  1  0
  6 14  1  0
  6 15  1  0
M  END

>  <ID>
Pocket2Mol_43_num_sample_50

>  <docking_score>
-4.774

$$$$
Pocket2Mol_44_num_sample_50
     RDKit          3D

 12 11  0  0  0  0  0  0  0  0999 V2000
   39.0400   35.5010   46.5040 C   0  0  0  0  0  0  0  0  0  0  0  0
   38.0190   34.9830   47.3870 O   0  0  0  0  0  0  0  0  0  0  0  0
   38.3010   34.4820   48.4870 C   0  0  0  0  0  0  0  0  0  0  0  0
   38.5010   33.2700   48.7060 O   0  0  0  0  0  0  0  0  0  0  0  0
   37.8300   35.2030   49.6910 C   0  0  0  0  0  0  0  0  0  0  0  0
   38.1460   36.5600   49.8250 N   0  0  0  0  0  0  0  0  0  0  0  0
   36.7240   34.6780   50.2390 O   0  0  0  0  0  0  0  0  0  0  0  0
   39.8638   35.9189   47.1013 H   0  0  0  0  0  0  0  0  0  0  0  0
   39.4229   34.6881   45.8695 H   0  0  0  0  0  0  0  0  0  0  0  0
   38.6102   36.2900   45.8695 H   0  0  0  0  0  0  0  0  0  0  0  0
   37.8300   37.0840   50.6530 H   0  0  0  0  0  0  0  0  0  0  0  0
   38.6940   37.0350   49.0930 H   0  0  0  0  0  0  0  0  0  0  0  0
  1  2  1  0
  2  3  1  0
  3  4  2  0
  3  5  1  0
  5  6  1  0
  5  7  2  0
  1  8  1  0
  1  9  1  0
  1 10  1  0
  6 11  1  0
  6 12  1  0
M  END

>  <ID>
Pocket2Mol_44_num_sample_50

>  <docking_score>
-4.177

$$$$
Pocket2Mol_45_num_sample_50
     RDKit          3D

 11 11  0  0  0  0  0  0  0  0999 V2000
   39.1400   27.9430   50.9640 C   0  0  0  0  0  0  0  0  0  0  0  0
   39.7340   29.1380   51.4150 C   0  0  0  0  0  0  0  0  0  0  0  0
   39.3160   29.3780   52.7620 O   0  0  0  0  0  0  0  0  0  0  0  0
   38.2350   28.3650   52.8770 C   0  0  0  0  0  0  0  0  0  0  0  0
   38.0780   27.7260   51.7020 O   0  0  0  0  0  0  0  0  0  0  0  0
   38.8489   28.0439   49.9080 H   0  0  0  0  0  0  0  0  0  0  0  0
   39.8468   27.1043   51.0474 H   0  0  0  0  0  0  0  0  0  0  0  0
   40.8293   29.0436   51.3786 H   0  0  0  0  0  0  0  0  0  0  0  0
   39.4259   29.9757   50.7720 H   0  0  0  0  0  0  0  0  0  0  0  0
   38.5004   27.6354   53.6562 H   0  0  0  0  0  0  0  0  0  0  0  0
   37.2941   28.8685   53.1437 H   0  0  0  0  0  0  0  0  0  0  0  0
  1  2  1  0
  2  3  1  0
  3  4  1  0
  4  5  1  0
  5  1  1  0
  1  6  1  0
  1  7  1  0
  2  8  1  0
  2  9  1  0
  4 10  1  0
  4 11  1  0
M  END

>  <ID>
Pocket2Mol_45_num_sample_50

>  <docking_score>
-3.106

$$$$
Pocket2Mol_46_num_sample_50
     RDKit          3D

 13 12  0  0  0  0  0  0  0  0999 V2000
   37.0960   34.8560   49.6420 C   0  0  0  0  0  0  0  0  0  0  0  0
   37.4000   34.8790   48.3780 O   0  0  0  0  0  0  0  0  0  0  0  0
   38.6130   34.5480   47.9460 C   0  0  0  0  0  0  0  0  0  0  0  0
   39.1780   35.6490   47.3400 C   0  0  0  0  0  0  0  0  0  0  0  0
   38.7430   35.9590   46.0420 O   0  0  0  0  0  0  0  0  0  0  0  0
   38.0156   34.9256   50.2416 H   0  0  0  0  0  0  0  0  0  0  0  0
   36.4399   35.7071   49.8769 H   0  0  0  0  0  0  0  0  0  0  0  0
   36.5754   33.9159   49.8769 H   0  0  0  0  0  0  0  0  0  0  0  0
   39.2359   34.2320   48.7958 H   0  0  0  0  0  0  0  0  0  0  0  0
   38.5432   33.7176   47.2280 H   0  0  0  0  0  0  0  0  0  0  0  0
   38.9687   36.5213   47.9766 H   0  0  0  0  0  0  0  0  0  0  0  0
   40.2432   35.3976   47.2303 H   0  0  0  0  0  0  0  0  0  0  0  0
   39.1800   35.3510   45.3940 H   0  0  0  0  0  0  0  0  0  0  0  0
  1  2  1  0
  2  3  1  0
  3  4  1  0
  4  5  1  0
  1  6  1  0
  1  7  1  0
  1  8  1  0
  3  9  1  0
  3 10  1  0
  4 11  1  0
  4 12  1  0
  5 13  1  0
M  END

>  <ID>
Pocket2Mol_46_num_sample_50

>  <docking_score>
-3.514

$$$$
Pocket2Mol_47_num_sample_50
     RDKit          3D

 15 15  0  0  0  0  0  0  0  0999 V2000
   40.5950   30.3600   50.6580 C   0  0  0  0  0  0  0  0  0  0  0  0
   40.2090   29.3440   50.0000 C   0  0  0  0  0  0  0  0  0  0  0  0
   39.4860   28.4210   50.6320 C   0  0  0  0  0  0  0  0  0  0  0  0
   39.7600   28.7690   51.9340 C   0  0  0  0  0  0  0  0  0  0  0  0
   39.9260   30.4460   51.8810 C   0  0  0  0  0  0  0  0  0  0  0  0
   41.6761   30.2791   50.8439 H   0  0  0  0  0  0  0  0  0  0  0  0
   40.3723   31.2636   50.0716 H   0  0  0  0  0  0  0  0  0  0  0  0
   39.6041   29.7116   49.1580 H   0  0  0  0  0  0  0  0  0  0  0  0
   41.1403   28.8235   49.7321 H   0  0  0  0  0  0  0  0  0  0  0  0
   38.4143   28.5100   50.4005 H   0  0  0  0  0  0  0  0  0  0  0  0
   39.7214   27.3798   50.3666 H   0  0  0  0  0  0  0  0  0  0  0  0
   38.9331   28.4787   52.5987 H   0  0  0  0  0  0  0  0  0  0  0  0
   40.6563   28.2668   52.3270 H   0  0  0  0  0  0  0  0  0  0  0  0
   38.9699   30.9875   51.8293 H   0  0  0  0  0  0  0  0  0  0  0  0
   40.3884   30.9797   52.7244 H   0  0  0  0  0  0  0  0  0  0  0  0
  1  2  1  0
  2  3  1  0
  3  4  1  0
  4  5  1  0
  5  1  1  0
  1  6  1  0
  1  7  1  0
  2  8  1  0
  2  9  1  0
  3 10  1  0
  3 11  1  0
  4 12  1  0
  4 13  1  0
  5 14  1  0
  5 15  1  0
M  END

>  <ID>
Pocket2Mol_47_num_sample_50

>  <docking_score>
-4.277

$$$$
Pocket2Mol_48_num_sample_50
     RDKit          3D

 15 15  0  0  0  0  0  0  0  0999 V2000
   39.5280   29.2100   51.9880 C   0  0  0  0  0  0  0  0  0  0  0  0
   40.0980   30.4690   51.6400 C   0  0  0  0  0  0  0  0  0  0  0  0
   40.4430   30.3710   50.1930 C   0  0  0  0  0  0  0  0  0  0  0  0
   39.8670   29.2840   49.8490 N   0  0  0  0  0  0  0  0  0  0  0  0
   39.5370   28.3970   50.9280 C   0  0  0  0  0  0  0  0  0  0  0  0
   40.1147   28.7563   52.8003 H   0  0  0  0  0  0  0  0  0  0  0  0
   38.4898   29.3620   52.3184 H   0  0  0  0  0  0  0  0  0  0  0  0
   39.3715   31.2779   51.8069 H   0  0  0  0  0  0  0  0  0  0  0  0
   40.9824   30.6970   52.2531 H   0  0  0  0  0  0  0  0  0  0  0  0
   40.0454   31.2281   49.6297 H   0  0  0  0  0  0  0  0  0  0  0  0
   41.5253   30.3773   49.9968 H   0  0  0  0  0  0  0  0  0  0  0  0
   40.4920   28.7810   49.2050 H   0  0  0  0  0  0  0  0  0  0  0  0
   38.9700   29.5590   49.4230 H   0  0  0  0  0  0  0  0  0  0  0  0
   38.5502   27.9359   50.7741 H   0  0  0  0  0  0  0  0  0  0  0  0
   40.2388   27.5561   51.0303 H   0  0  0  0  0  0  0  0  0  0  0  0
  1  2  1  0
  2  3  1  0
  3  4  1  0
  4  5  1  0
  5  1  1  0
  1  6  1  0
  1  7  1  0
  2  8  1  0
  2  9  1  0
  3 10  1  0
  3 11  1  0
  4 12  1  0
  4 13  1  0
  5 14  1  0
  5 15  1  0
M  CHG  1   4   1
M  END

>  <ID>
Pocket2Mol_48_num_sample_50

>  <docking_score>
-3.659

$$$$
Pocket2Mol_49_num_sample_50
     RDKit          3D

 13 13  0  0  0  0  0  0  0  0999 V2000
   40.5950   30.2160   50.5830 C   0  0  0  0  0  0  0  0  0  0  0  0
   39.7420   28.5610   50.5190 C   0  0  0  0  0  0  0  0  0  0  0  0
   39.4800   28.2930   51.8000 C   0  0  0  0  0  0  0  0  0  0  0  0
   39.5590   29.4050   52.3710 O   0  0  0  0  0  0  0  0  0  0  0  0
   39.9520   30.4850   51.7410 C   0  0  0  0  0  0  0  0  0  0  0  0
   41.6894   30.1567   50.6772 H   0  0  0  0  0  0  0  0  0  0  0  0
   40.5377   30.9117   49.7329 H   0  0  0  0  0  0  0  0  0  0  0  0
   38.8134   28.6202   49.9323 H   0  0  0  0  0  0  0  0  0  0  0  0
   40.3526   27.7839   50.0361 H   0  0  0  0  0  0  0  0  0  0  0  0
   38.4712   27.8687   51.9110 H   0  0  0  0  0  0  0  0  0  0  0  0
   40.1733   27.5521   52.2248 H   0  0  0  0  0  0  0  0  0  0  0  0
   39.0687   31.1010   51.5166 H   0  0  0  0  0  0  0  0  0  0  0  0
   40.6619   31.0092   52.3977 H   0  0  0  0  0  0  0  0  0  0  0  0
  1  2  1  0
  2  3  1  0
  3  4  1  0
  4  5  1  0
  5  1  1  0
  1  6  1  0
  1  7  1  0
  2  8  1  0
  2  9  1  0
  3 10  1  0
  3 11  1  0
  5 12  1  0
  5 13  1  0
M  END

>  <ID>
Pocket2Mol_49_num_sample_50

>  <docking_score>
-3.59

$$$$
Pocket2Mol_4_num_sample_50
     RDKit          3D

 11 10  0  0  0  0  0  0  0  0999 V2000
   39.1260   35.5350   46.9960 C   0  0  0  0  0  0  0  0  0  0  0  0
   37.9450   34.9750   47.6140 O   0  0  0  0  0  0  0  0  0  0  0  0
   37.9940   34.3980   48.7130 C   0  0  0  0  0  0  0  0  0  0  0  0
   37.2140   34.9360   49.8480 C   0  0  0  0  0  0  0  0  0  0  0  0
   38.5220   33.2560   48.7910 O   0  0  0  0  0  0  0  0  0  0  0  0
   39.8261   35.8670   47.7768 H   0  0  0  0  0  0  0  0  0  0  0  0
   39.6100   34.7705   46.3705 H   0  0  0  0  0  0  0  0  0  0  0  0
   38.8404   36.3936   46.3705 H   0  0  0  0  0  0  0  0  0  0  0  0
   37.6759   34.6174   50.7941 H   0  0  0  0  0  0  0  0  0  0  0  0
   37.2028   36.0348   49.7972 H   0  0  0  0  0  0  0  0  0  0  0  0
   36.1829   34.5561   49.7972 H   0  0  0  0  0  0  0  0  0  0  0  0
  1  2  1  0
  2  3  1  0
  3  4  1  0
  3  5  2  0
  1  6  1  0
  1  7  1  0
  1  8  1  0
  4  9  1  0
  4 10  1  0
  4 11  1  0
M  END

>  <ID>
Pocket2Mol_4_num_sample_50

>  <docking_score>
-3.583

$$$$
Pocket2Mol_5_num_sample_50
     RDKit          3D

 13 13  0  0  0  0  0  0  0  0999 V2000
   40.2090   29.3260   49.8940 C   0  0  0  0  0  0  0  0  0  0  0  0
   40.4960   30.4510   50.3570 C   0  0  0  0  0  0  0  0  0  0  0  0
   40.0950   30.4260   51.7010 C   0  0  0  0  0  0  0  0  0  0  0  0
   39.5380   29.2050   51.9610 C   0  0  0  0  0  0  0  0  0  0  0  0
   39.6500   28.4520   50.8310 C   0  0  0  0  0  0  0  0  0  0  0  0
   40.3809   29.0486   48.8435 H   0  0  0  0  0  0  0  0  0  0  0  0
   40.9663   31.2884   49.8208 H   0  0  0  0  0  0  0  0  0  0  0  0
   40.9675   30.5829   52.3523 H   0  0  0  0  0  0  0  0  0  0  0  0
   39.3631   31.2245   51.8926 H   0  0  0  0  0  0  0  0  0  0  0  0
   40.0718   28.7182   52.7905 H   0  0  0  0  0  0  0  0  0  0  0  0
   38.4820   29.3155   52.2485 H   0  0  0  0  0  0  0  0  0  0  0  0
   40.3091   27.5879   51.0011 H   0  0  0  0  0  0  0  0  0  0  0  0
   38.6853   28.0392   50.5009 H   0  0  0  0  0  0  0  0  0  0  0  0
  1  2  2  0
  2  3  1  0
  3  4  1  0
  4  5  1  0
  5  1  1  0
  1  6  1  0
  2  7  1  0
  3  8  1  0
  3  9  1  0
  4 10  1  0
  4 11  1  0
  5 12  1  0
  5 13  1  0
M  END

>  <ID>
Pocket2Mol_5_num_sample_50

>  <docking_score>
-4.384

$$$$
Pocket2Mol_6_num_sample_50
     RDKit          3D

 12 12  0  0  0  0  0  0  0  0999 V2000
   40.1680   29.2430   50.0680 C   0  0  0  0  0  0  0  0  0  0  0  0
   39.6060   28.1670   50.6760 C   0  0  0  0  0  0  0  0  0  0  0  0
   39.1650   28.4320   51.8850 C   0  0  0  0  0  0  0  0  0  0  0  0
   39.4160   29.5560   52.6120 C   0  0  0  0  0  0  0  0  0  0  0  0
   40.0670   30.4850   51.9140 C   0  0  0  0  0  0  0  0  0  0  0  0
   40.5400   30.4150   50.6310 C   0  0  0  0  0  0  0  0  0  0  0  0
   40.3419   29.1502   48.9858 H   0  0  0  0  0  0  0  0  0  0  0  0
   39.5279   27.1759   50.2052 H   0  0  0  0  0  0  0  0  0  0  0  0
   38.5289   27.6691   52.3577 H   0  0  0  0  0  0  0  0  0  0  0  0
   39.1138   29.6829   53.6620 H   0  0  0  0  0  0  0  0  0  0  0  0
   40.2488   31.4349   52.4380 H   0  0  0  0  0  0  0  0  0  0  0  0
   41.1338   31.1954   50.1327 H   0  0  0  0  0  0  0  0  0  0  0  0
  1  2  2  0
  2  3  1  0
  3  4  2  0
  4  5  1  0
  5  6  2  0
  6  1  1  0
  1  7  1  0
  2  8  1  0
  3  9  1  0
  4 10  1  0
  5 11  1  0
  6 12  1  0
M  END

>  <ID>
Pocket2Mol_6_num_sample_50

>  <docking_score>
-5.026

$$$$
Pocket2Mol_7_num_sample_50
     RDKit          3D

 11 11  0  0  0  0  0  0  0  0999 V2000
   38.3880   27.5680   51.5360 O   0  0  0  0  0  0  0  0  0  0  0  0
   39.0990   28.5330   51.3300 C   0  0  0  0  0  0  0  0  0  0  0  0
   39.8910   28.8850   50.2790 C   0  0  0  0  0  0  0  0  0  0  0  0
   40.4480   30.1070   50.6660 C   0  0  0  0  0  0  0  0  0  0  0  0
   40.1350   30.4620   51.8240 C   0  0  0  0  0  0  0  0  0  0  0  0
   39.3940   29.6080   52.2290 N   0  0  0  0  0  0  0  0  0  0  0  0
   40.6764   28.1330   50.1129 H   0  0  0  0  0  0  0  0  0  0  0  0
   39.3319   28.9562   49.3344 H   0  0  0  0  0  0  0  0  0  0  0  0
   41.5434   30.0204   50.6143 H   0  0  0  0  0  0  0  0  0  0  0  0
   40.0523   30.8702   49.9798 H   0  0  0  0  0  0  0  0  0  0  0  0
   40.4677   31.3644   52.3578 H   0  0  0  0  0  0  0  0  0  0  0  0
  1  2  2  0
  2  3  1  0
  3  4  1  0
  4  5  1  0
  5  6  2  0
  6  2  1  0
  3  7  1  0
  3  8  1  0
  4  9  1  0
  4 10  1  0
  5 11  1  0
M  END

>  <ID>
Pocket2Mol_7_num_sample_50

>  <docking_score>
-4.317

$$$$
Pocket2Mol_8_num_sample_50
     RDKit          3D

 12 12  0  0  0  0  0  0  0  0999 V2000
   38.9480   29.1480   53.6190 C   0  0  0  0  0  0  0  0  0  0  0  0
   39.4450   29.2390   52.1820 C   0  0  0  0  0  0  0  0  0  0  0  0
   40.0990   30.4080   51.8430 C   0  0  0  0  0  0  0  0  0  0  0  0
   40.5430   30.4280   50.6450 C   0  0  0  0  0  0  0  0  0  0  0  0
   40.2030   29.3960   49.8670 C   0  0  0  0  0  0  0  0  0  0  0  0
   39.3160   28.1260   51.2380 S   0  0  0  0  0  0  0  0  0  0  0  0
   39.7907   29.3023   54.3089 H   0  0  0  0  0  0  0  0  0  0  0  0
   38.1854   29.9214   53.7929 H   0  0  0  0  0  0  0  0  0  0  0  0
   38.5089   28.1545   53.7929 H   0  0  0  0  0  0  0  0  0  0  0  0
   40.2262   31.2473   52.5426 H   0  0  0  0  0  0  0  0  0  0  0  0
   41.1716   31.2509   50.2738 H   0  0  0  0  0  0  0  0  0  0  0  0
   40.3544   29.2586   48.7862 H   0  0  0  0  0  0  0  0  0  0  0  0
  1  2  1  0
  2  3  2  0
  3  4  1  0
  4  5  2  0
  5  6  1  0
  6  2  1  0
  1  7  1  0
  1  8  1  0
  1  9  1  0
  3 10  1  0
  4 11  1  0
  5 12  1  0
M  END

>  <ID>
Pocket2Mol_8_num_sample_50

>  <docking_score>
-4.491

$$$$
Pocket2Mol_9_num_sample_50
     RDKit          3D

  7  6  0  0  0  0  0  0  0  0999 V2000
   37.2280   34.6510   49.4460 C   0  0  0  0  0  0  0  0  0  0  0  0
   37.9670   34.3970   48.6020 C   0  0  0  0  0  0  0  0  0  0  0  0
   38.1900   34.9970   47.5300 O   0  0  0  0  0  0  0  0  0  0  0  0
   38.5800   33.1560   48.7520 O   0  0  0  0  0  0  0  0  0  0  0  0
   37.7121   34.4846   50.4196 H   0  0  0  0  0  0  0  0  0  0  0  0
   36.9245   35.7050   49.3628 H   0  0  0  0  0  0  0  0  0  0  0  0
   36.3406   34.0063   49.3628 H   0  0  0  0  0  0  0  0  0  0  0  0
  1  2  1  0
  2  3  2  0
  2  4  1  0
  1  5  1  0
  1  6  1  0
  1  7  1  0
M  CHG  1   4  -1
M  END

>  <ID>
Pocket2Mol_9_num_sample_50

>  <docking_score>
-3.231

$$$$
